@<TRIPOS>MOLECULE
UNL
   45    49     1     0     0
SMALL
bcc


@<TRIPOS>ATOM
      1 C1          -0.8690    16.9680    45.6560 cp         1 UNL      -0.195500
      2 C2          -1.7580    15.9070    45.8030 ca         1 UNL      -0.050000
      3 C3          -3.0160    16.0220    45.1850 ca         1 UNL      -0.165000
      4 C4          -3.3530    17.1820    44.4510 ca         1 UNL      -0.089000
      5 C5          -2.4360    18.2420    44.3220 ca         1 UNL      -0.158000
      6 C6          -1.1870    18.1090    44.9350 ca         1 UNL       0.007800
      7 N1          -0.1630    19.0050    44.9550 na         1 UNL      -0.170000
      8 C7           0.7890    18.4170    45.7140 ca         1 UNL       0.376500
      9 C8           0.3940    17.1790    46.1470 cp         1 UNL       0.356500
     10 N2           1.1720    16.4100    46.9440 nb         1 UNL      -0.594000
     11 C9           2.3950    16.9000    47.3120 ca         1 UNL       0.268300
     12 C10          2.8120    18.1940    46.8640 ca         1 UNL       0.316300
     13 N3           1.9890    18.9390    46.0660 nb         1 UNL      -0.661000
     14 C11          4.0610    18.6900    47.2500 ca         1 UNL      -0.170300
     15 C12          4.8960    17.9210    48.0680 ca         1 UNL      -0.116000
     16 C13          4.4880    16.6560    48.5060 ca         1 UNL      -0.135000
     17 C14          3.2410    16.1450    48.1310 ca         1 UNL      -0.149300
     18 C15         -0.1310    20.3560    44.3920 c3         1 UNL       0.033300
     19 C16         -0.7480    21.3520    45.3780 c3         1 UNL       0.136800
     20 N4          -0.8480    22.6970    44.7710 n3         1 UNL      -0.725600
     21 C17         -1.9030    23.4820    45.4400 c3         1 UNL       0.130300
     22 C18         -1.9640    24.8920    44.8390 c3         1 UNL       0.126400
     23 O1          -0.7200    25.5500    44.9770 os         1 UNL      -0.414600
     24 C19          0.2780    24.8310    44.2780 c3         1 UNL       0.126400
     25 C20          0.4360    23.4210    44.8580 c3         1 UNL       0.130300
     26 H1          -1.4950    15.0280    46.3760 ha         1 UNL       0.153000
     27 H2          -3.7340    15.2180    45.2770 ha         1 UNL       0.138000
     28 H3          -4.3270    17.2580    43.9860 ha         1 UNL       0.136000
     29 H4          -2.7010    19.1320    43.7670 ha         1 UNL       0.146000
     30 H5           4.3870    19.6680    46.9170 ha         1 UNL       0.150000
     31 H6           5.8630    18.3080    48.3650 ha         1 UNL       0.137000
     32 H7           5.1410    16.0700    49.1400 ha         1 UNL       0.138000
     33 H8           2.9360    15.1660    48.4770 ha         1 UNL       0.151000
     34 H9           0.9200    20.6330    44.1690 h1         1 UNL       0.076700
     35 H10         -0.6910    20.3780    43.4330 h1         1 UNL       0.076700
     36 H11         -0.1540    21.3740    46.3200 h1         1 UNL       0.045700
     37 H12         -1.7610    20.9700    45.6400 h1         1 UNL       0.045700
     38 H13         -2.8920    22.9960    45.2870 h1         1 UNL       0.043200
     39 H14         -1.7080    23.5550    46.5350 h1         1 UNL       0.043200
     40 H15         -2.7350    25.4780    45.3830 h1         1 UNL       0.054450
     41 H16         -2.2750    24.8480    43.7700 h1         1 UNL       0.054450
     42 H17          1.2420    25.3720    44.3860 h1         1 UNL       0.054450
     43 H18          0.0450    24.7820    43.1900 h1         1 UNL       0.054450
     44 H19          0.7800    23.4990    45.9150 h1         1 UNL       0.043200
     45 H20          1.2170    22.8940    44.2710 h1         1 UNL       0.043200
@<TRIPOS>BOND
     1     1     2 ar  
     2     1     6 ar  
     3     1     9 1   
     4     2     3 ar  
     5     2    26 1   
     6     3     4 ar  
     7     3    27 1   
     8     4     5 ar  
     9     4    28 1   
    10     5     6 ar  
    11     5    29 1   
    12     6     7 1   
    13     7     8 1   
    14     7    18 1   
    15     8     9 ar  
    16     8    13 ar  
    17     9    10 ar  
    18    10    11 ar  
    19    11    12 ar  
    20    11    17 ar  
    21    12    13 ar  
    22    12    14 ar  
    23    14    15 ar  
    24    14    30 1   
    25    15    16 ar  
    26    15    31 1   
    27    16    17 ar  
    28    16    32 1   
    29    17    33 1   
    30    18    19 1   
    31    18    34 1   
    32    18    35 1   
    33    19    20 1   
    34    19    36 1   
    35    19    37 1   
    36    20    21 1   
    37    20    25 1   
    38    21    22 1   
    39    21    38 1   
    40    21    39 1   
    41    22    23 1   
    42    22    40 1   
    43    22    41 1   
    44    23    24 1   
    45    24    25 1   
    46    24    42 1   
    47    24    43 1   
    48    25    44 1   
    49    25    45 1   
@<TRIPOS>SUBSTRUCTURE
     1 UNL         1 TEMP              0 ****  ****    0 ROOT
