@<TRIPOS>MOLECULE
UNL
   52    56     1     0     0
SMALL
bcc


@<TRIPOS>ATOM
      1 C1          -0.9000    16.9770    45.7090 cp         1 UNL      -0.203500
      2 C2          -1.7980    15.9040    45.8160 ca         1 UNL       0.038000
      3 C3          -3.0340    16.0100    45.1160 ca         1 UNL      -0.073000
      4 C4          -3.3190    17.1610    44.3430 ca         1 UNL      -0.071000
      5 C5          -2.3980    18.2160    44.2580 ca         1 UNL      -0.157000
      6 C6          -1.1960    18.1110    44.9610 ca         1 UNL       0.030800
      7 N1          -0.1820    19.0170    45.0020 na         1 UNL      -0.184000
      8 C7           0.7700    18.4270    45.7560 ca         1 UNL       0.384500
      9 C8           0.3670    17.2000    46.2110 cp         1 UNL       0.362500
     10 N2           1.1610    16.4310    46.9920 nb         1 UNL      -0.602000
     11 C9           2.3970    16.9080    47.3300 ca         1 UNL       0.269300
     12 C10          2.8210    18.1890    46.8560 ca         1 UNL       0.318300
     13 N3           1.9890    18.9330    46.0680 nb         1 UNL      -0.668000
     14 C11          4.0820    18.6760    47.2100 ca         1 UNL      -0.172300
     15 C12          4.9250    17.9070    48.0200 ca         1 UNL      -0.117000
     16 C13          4.5130    16.6510    48.4780 ca         1 UNL      -0.136000
     17 C14          3.2520    16.1510    48.1360 ca         1 UNL      -0.150300
     18 C15         -0.0980    20.3240    44.3430 c3         1 UNL       0.006300
     19 C16         -1.0700    21.3640    44.9500 c3         1 UNL       0.175800
     20 N4          -0.6880    21.8840    46.2820 n3         1 UNL      -0.766600
     21 C17         -0.7690    20.8870    47.3690 c3         1 UNL       0.186300
     22 C18         -1.1920    21.5500    48.6760 c3         1 UNL      -0.095100
     23 C19          0.5510    22.6970    46.2860 c3         1 UNL       0.186300
     24 C20          0.2180    24.1400    46.6400 c3         1 UNL      -0.095100
     25 C21         -3.9640    14.9630    45.1940 ca         1 UNL      -0.110000
     26 C22         -3.6800    13.8240    45.9500 ca         1 UNL      -0.136000
     27 C23         -2.4680    13.7190    46.6370 ca         1 UNL      -0.117000
     28 C24         -1.5270    14.7500    46.5710 ca         1 UNL      -0.119000
     29 H1          -4.2550    17.2410    43.8040 ha         1 UNL       0.137000
     30 H2          -2.6210    19.0810    43.6480 ha         1 UNL       0.142000
     31 H3           4.4110    19.6460    46.8610 ha         1 UNL       0.149000
     32 H4           5.9000    18.2870    48.2940 ha         1 UNL       0.137000
     33 H5           5.1760    16.0620    49.1010 ha         1 UNL       0.137000
     34 H6           2.9440    15.1780    48.4980 ha         1 UNL       0.150000
     35 H7           0.9460    20.6960    44.3640 h1         1 UNL       0.069700
     36 H8          -0.3530    20.1920    43.2700 h1         1 UNL       0.069700
     37 H9          -2.0970    20.9450    45.0020 h1         1 UNL       0.056700
     38 H10         -1.1420    22.2200    44.2440 h1         1 UNL       0.056700
     39 H11         -1.5310    20.1100    47.1360 h1         1 UNL       0.032950
     40 H12          0.2050    20.3770    47.5220 h1         1 UNL       0.032950
     41 H13         -2.1500    22.0950    48.5340 hc         1 UNL       0.037367
     42 H14         -0.4110    22.2570    49.0210 hc         1 UNL       0.037367
     43 H15         -1.3360    20.7750    49.4580 hc         1 UNL       0.037367
     44 H16          1.2970    22.3120    47.0150 h1         1 UNL       0.032950
     45 H17          1.0450    22.7090    45.2930 h1         1 UNL       0.032950
     46 H18         -0.2380    24.2020    47.6480 hc         1 UNL       0.037367
     47 H19          1.1420    24.7530    46.6320 hc         1 UNL       0.037367
     48 H20         -0.4920    24.5580    45.8960 hc         1 UNL       0.037367
     49 H21         -4.9090    15.0240    44.6680 ha         1 UNL       0.131000
     50 H22         -4.4020    13.0200    46.0060 ha         1 UNL       0.133000
     51 H23         -2.2570    12.8330    47.2210 ha         1 UNL       0.134000
     52 H24         -0.6000    14.6360    47.1140 ha         1 UNL       0.159000
@<TRIPOS>BOND
     1     1     2 ar  
     2     1     6 ar  
     3     1     9 1   
     4     2     3 ar  
     5     2    28 ar  
     6     3     4 ar  
     7     3    25 ar  
     8     4     5 ar  
     9     4    29 1   
    10     5     6 ar  
    11     5    30 1   
    12     6     7 1   
    13     7     8 1   
    14     7    18 1   
    15     8     9 ar  
    16     8    13 ar  
    17     9    10 ar  
    18    10    11 ar  
    19    11    12 ar  
    20    11    17 ar  
    21    12    13 ar  
    22    12    14 ar  
    23    14    15 ar  
    24    14    31 1   
    25    15    16 ar  
    26    15    32 1   
    27    16    17 ar  
    28    16    33 1   
    29    17    34 1   
    30    18    19 1   
    31    18    35 1   
    32    18    36 1   
    33    19    20 1   
    34    19    37 1   
    35    19    38 1   
    36    20    21 1   
    37    20    23 1   
    38    21    22 1   
    39    21    39 1   
    40    21    40 1   
    41    22    41 1   
    42    22    42 1   
    43    22    43 1   
    44    23    24 1   
    45    23    44 1   
    46    23    45 1   
    47    24    46 1   
    48    24    47 1   
    49    24    48 1   
    50    25    26 ar  
    51    25    49 1   
    52    26    27 ar  
    53    26    50 1   
    54    27    28 ar  
    55    27    51 1   
    56    28    52 1   
@<TRIPOS>SUBSTRUCTURE
     1 UNL         1 TEMP              0 ****  ****    0 ROOT
