@<TRIPOS>MOLECULE
UNL
   49    52     1     0     0
SMALL
bcc


@<TRIPOS>ATOM
      1 C1          -0.7770    17.3050    45.5120 cp         1 UNL      -0.197500
      2 C2          -1.8070    17.8620    44.7600 ca         1 UNL      -0.050000
      3 C3          -2.9870    17.1100    44.6170 ca         1 UNL      -0.166000
      4 C4          -3.1100    15.8420    45.2270 ca         1 UNL      -0.088000
      5 C5          -2.0530    15.3050    45.9870 ca         1 UNL      -0.159000
      6 C6          -0.8840    16.0600    46.1110 ca         1 UNL       0.009800
      7 N1           0.2440    15.7480    46.8050 na         1 UNL      -0.170000
      8 C7           1.0490    16.8230    46.6470 ca         1 UNL       0.378500
      9 C8           0.4620    17.7800    45.8620 cp         1 UNL       0.356500
     10 N2           1.0670    18.9590    45.5840 nb         1 UNL      -0.595000
     11 C9           2.3110    19.1790    46.1070 ca         1 UNL       0.267300
     12 C10          2.9290    18.1840    46.9290 ca         1 UNL       0.316300
     13 N3           2.2760    17.0100    47.1900 nb         1 UNL      -0.661000
     14 C11          4.1990    18.4200    47.4650 ca         1 UNL      -0.170300
     15 C12          4.8590    19.6230    47.1940 ca         1 UNL      -0.117000
     16 C13          4.2550    20.5970    46.3900 ca         1 UNL      -0.136000
     17 C14          2.9840    20.3770    45.8480 ca         1 UNL      -0.149300
     18 C15          0.4980    14.5730    47.6410 c3         1 UNL       0.033300
     19 C16         -0.0570    14.8000    49.0530 c3         1 UNL       0.140800
     20 N4          -0.0550    13.5510    49.8490 n3         1 UNL      -0.739600
     21 C17         -0.8760    13.7040    51.0730 c3         1 UNL       0.173800
     22 C18         -1.5360    12.3650    51.4370 c3         1 UNL      -0.081400
     23 C19         -2.3120    12.4250    52.7630 c3         1 UNL      -0.080400
     24 C20         -3.5960    13.2480    52.6630 c3         1 UNL      -0.093100
     25 C21          1.3240    13.1560    50.2030 c3         1 UNL       0.153100
     26 H1          -1.7070    18.8390    44.3050 ha         1 UNL       0.152000
     27 H2          -3.8100    17.5100    44.0390 ha         1 UNL       0.138000
     28 H3          -4.0270    15.2790    45.1130 ha         1 UNL       0.135000
     29 H4          -2.1560    14.3370    46.4600 ha         1 UNL       0.145000
     30 H5           4.6760    17.6740    48.0890 ha         1 UNL       0.150000
     31 H6           5.8420    19.8030    47.6100 ha         1 UNL       0.137000
     32 H7           4.7730    21.5250    46.1880 ha         1 UNL       0.137000
     33 H8           2.5260    21.1380    45.2280 ha         1 UNL       0.151000
     34 H9           0.0230    13.6780    47.1860 h1         1 UNL       0.076700
     35 H10          1.5920    14.3880    47.6820 h1         1 UNL       0.076700
     36 H11          0.5210    15.6030    49.5660 h1         1 UNL       0.043200
     37 H12         -1.1010    15.1660    48.9300 h1         1 UNL       0.043200
     38 H13         -0.2650    14.0780    51.9270 h1         1 UNL       0.030700
     39 H14         -1.6920    14.4420    50.9190 h1         1 UNL       0.030700
     40 H15         -0.7560    11.5820    51.5370 hc         1 UNL       0.047200
     41 H16         -2.2160    12.0490    50.6150 hc         1 UNL       0.047200
     42 H17         -2.5860    11.3880    53.0550 hc         1 UNL       0.040200
     43 H18         -1.6650    12.8390    53.5660 hc         1 UNL       0.040200
     44 H19         -4.2260    12.8870    51.8210 hc         1 UNL       0.033367
     45 H20         -4.1740    13.1430    53.6050 hc         1 UNL       0.033367
     46 H21         -3.3660    14.3230    52.5190 hc         1 UNL       0.033367
     47 H22          1.8800    13.9980    50.6720 h1         1 UNL       0.034033
     48 H23          1.3250    12.3000    50.9110 h1         1 UNL       0.034033
     49 H24          1.8700    12.8100    49.3020 h1         1 UNL       0.034033
@<TRIPOS>BOND
     1     1     2 ar  
     2     1     6 ar  
     3     1     9 1   
     4     2     3 ar  
     5     2    26 1   
     6     3     4 ar  
     7     3    27 1   
     8     4     5 ar  
     9     4    28 1   
    10     5     6 ar  
    11     5    29 1   
    12     6     7 1   
    13     7     8 1   
    14     7    18 1   
    15     8     9 ar  
    16     8    13 ar  
    17     9    10 ar  
    18    10    11 ar  
    19    11    12 ar  
    20    11    17 ar  
    21    12    13 ar  
    22    12    14 ar  
    23    14    15 ar  
    24    14    30 1   
    25    15    16 ar  
    26    15    31 1   
    27    16    17 ar  
    28    16    32 1   
    29    17    33 1   
    30    18    19 1   
    31    18    34 1   
    32    18    35 1   
    33    19    20 1   
    34    19    36 1   
    35    19    37 1   
    36    20    21 1   
    37    20    25 1   
    38    21    22 1   
    39    21    38 1   
    40    21    39 1   
    41    22    23 1   
    42    22    40 1   
    43    22    41 1   
    44    23    24 1   
    45    23    42 1   
    46    23    43 1   
    47    24    44 1   
    48    24    45 1   
    49    24    46 1   
    50    25    47 1   
    51    25    48 1   
    52    25    49 1   
@<TRIPOS>SUBSTRUCTURE
     1 UNL         1 TEMP              0 ****  ****    0 ROOT
