@<TRIPOS>MOLECULE
UNL
   53    58     1     0     0
SMALL
bcc


@<TRIPOS>ATOM
      1 C1           1.1410    17.2020    46.4870 cp         1 UNL      -0.197500
      2 C2           0.0720    16.2930    46.4810 ca         1 UNL       0.035000
      3 C3          -1.1020    16.6650    45.7660 ca         1 UNL      -0.070000
      4 C4          -1.1680    17.9160    45.1060 ca         1 UNL      -0.074000
      5 C5          -0.0800    18.8000    45.1300 ca         1 UNL      -0.151000
      6 C6           1.0720    18.4200    45.8220 ca         1 UNL       0.018800
      7 N1           2.2150    19.1400    45.9790 na         1 UNL      -0.169000
      8 C7           2.9950    18.3760    46.7720 ca         1 UNL       0.371500
      9 C8           2.3830    17.1950    47.0930 cp         1 UNL       0.362500
     10 N2           2.9600    16.2940    47.9240 nb         1 UNL      -0.604000
     11 C9           4.1940    16.5810    48.4350 ca         1 UNL       0.272300
     12 C10          4.8360    17.8130    48.1010 ca         1 UNL       0.314300
     13 N3           4.2130    18.7030    47.2700 nb         1 UNL      -0.656000
     14 C11          6.0950    18.1050    48.6350 ca         1 UNL      -0.169300
     15 C12          6.7170    17.1940    49.4950 ca         1 UNL      -0.119000
     16 C13          6.0880    15.9870    49.8230 ca         1 UNL      -0.134000
     17 C14          4.8310    15.6790    49.2940 ca         1 UNL      -0.152300
     18 C15          2.4890    20.5050    45.5290 c3         1 UNL       0.037300
     19 C16          1.9630    21.5100    46.5570 c3         1 UNL       0.144800
     20 N4           2.1600    22.8940    46.0730 n3         1 UNL      -0.736600
     21 C17          2.3480    23.8190    47.2100 c3         1 UNL       0.174300
     22 C18          2.6410    25.2360    46.7050 c3         1 UNL      -0.077900
     23 C19          1.5160    25.7280    45.7920 c3         1 UNL      -0.078400
     24 C20          1.2580    24.7220    44.6700 c3         1 UNL      -0.077900
     25 C21          1.0070    23.3270    45.2500 c3         1 UNL       0.174300
     26 C22         -2.1950    15.7850    45.7260 ca         1 UNL      -0.111000
     27 C23         -2.1290    14.5500    46.3780 ca         1 UNL      -0.135000
     28 C24         -0.9780    14.1850    47.0820 ca         1 UNL      -0.118000
     29 C25          0.1200    15.0490    47.1370 ca         1 UNL      -0.118000
     30 H1          -2.0660    18.2040    44.5700 ha         1 UNL       0.137000
     31 H2          -0.1470    19.7560    44.6280 ha         1 UNL       0.143000
     32 H3           6.5890    19.0370    48.3900 ha         1 UNL       0.151000
     33 H4           7.6880    17.4230    49.9120 ha         1 UNL       0.137000
     34 H5           6.5780    15.2880    50.4880 ha         1 UNL       0.137000
     35 H6           4.3510    14.7440    49.5590 ha         1 UNL       0.150000
     36 H7           2.0300    20.6680    44.5330 h1         1 UNL       0.077200
     37 H8           3.5850    20.6480    45.4130 h1         1 UNL       0.077200
     38 H9           2.5310    21.3310    47.5000 h1         1 UNL       0.044700
     39 H10          0.8900    21.3090    46.7880 h1         1 UNL       0.044700
     40 H11          3.2190    23.4970    47.8220 h1         1 UNL       0.029450
     41 H12          1.4480    23.8290    47.8650 h1         1 UNL       0.029450
     42 H13          3.6010    25.2370    46.1470 hc         1 UNL       0.047950
     43 H14          2.7410    25.9240    47.5700 hc         1 UNL       0.047950
     44 H15          0.5880    25.8700    46.3870 hc         1 UNL       0.040700
     45 H16          1.7960    26.7090    45.3520 hc         1 UNL       0.040700
     46 H17          2.1340    24.6900    43.9890 hc         1 UNL       0.047950
     47 H18          0.3730    25.0460    44.0820 hc         1 UNL       0.047950
     48 H19          0.0700    23.3390    45.8520 h1         1 UNL       0.029450
     49 H20          0.8570    22.6290    44.3980 h1         1 UNL       0.029450
     50 H21         -3.0960    16.0500    45.1890 ha         1 UNL       0.131000
     51 H22         -2.9700    13.8700    46.3310 ha         1 UNL       0.133000
     52 H23         -0.9340    13.2240    47.5800 ha         1 UNL       0.134000
     53 H24          0.9980    14.7300    47.6780 ha         1 UNL       0.159000
@<TRIPOS>BOND
     1     1     2 ar  
     2     1     6 ar  
     3     1     9 1   
     4     2     3 ar  
     5     2    29 ar  
     6     3     4 ar  
     7     3    26 ar  
     8     4     5 ar  
     9     4    30 1   
    10     5     6 ar  
    11     5    31 1   
    12     6     7 1   
    13     7     8 1   
    14     7    18 1   
    15     8     9 ar  
    16     8    13 ar  
    17     9    10 ar  
    18    10    11 ar  
    19    11    12 ar  
    20    11    17 ar  
    21    12    13 ar  
    22    12    14 ar  
    23    14    15 ar  
    24    14    32 1   
    25    15    16 ar  
    26    15    33 1   
    27    16    17 ar  
    28    16    34 1   
    29    17    35 1   
    30    18    19 1   
    31    18    36 1   
    32    18    37 1   
    33    19    20 1   
    34    19    38 1   
    35    19    39 1   
    36    20    21 1   
    37    20    25 1   
    38    21    22 1   
    39    21    40 1   
    40    21    41 1   
    41    22    23 1   
    42    22    42 1   
    43    22    43 1   
    44    23    24 1   
    45    23    44 1   
    46    23    45 1   
    47    24    25 1   
    48    24    46 1   
    49    24    47 1   
    50    25    48 1   
    51    25    49 1   
    52    26    27 ar  
    53    26    50 1   
    54    27    28 ar  
    55    27    51 1   
    56    28    29 ar  
    57    28    52 1   
    58    29    53 1   
@<TRIPOS>SUBSTRUCTURE
     1 UNL         1 TEMP              0 ****  ****    0 ROOT
