@<TRIPOS>MOLECULE
UNL
   40    43     1     0     0
SMALL
bcc


@<TRIPOS>ATOM
      1 C1          -0.8700    16.9690    45.6580 cp         1 UNL      -0.196500
      2 C2          -1.7590    15.9080    45.8040 ca         1 UNL      -0.049000
      3 C3          -3.0150    16.0220    45.1830 ca         1 UNL      -0.167000
      4 C4          -3.3510    17.1810    44.4480 ca         1 UNL      -0.088000
      5 C5          -2.4350    18.2420    44.3200 ca         1 UNL      -0.161000
      6 C6          -1.1870    18.1090    44.9360 ca         1 UNL       0.010800
      7 N1          -0.1640    19.0050    44.9560 na         1 UNL      -0.171000
      8 C7           0.7880    18.4180    45.7150 ca         1 UNL       0.378500
      9 C8           0.3930    17.1800    46.1490 cp         1 UNL       0.355500
     10 N2           1.1720    16.4100    46.9460 nb         1 UNL      -0.595000
     11 C9           2.3940    16.9000    47.3130 ca         1 UNL       0.267300
     12 C10          2.8120    18.1940    46.8640 ca         1 UNL       0.316300
     13 N3           1.9890    18.9400    46.0660 nb         1 UNL      -0.659000
     14 C11          4.0620    18.6890    47.2480 ca         1 UNL      -0.170300
     15 C12          4.8970    17.9210    48.0660 ca         1 UNL      -0.117000
     16 C13          4.4890    16.6560    48.5050 ca         1 UNL      -0.136000
     17 C14          3.2410    16.1450    48.1310 ca         1 UNL      -0.149300
     18 C15         -0.1340    20.3540    44.3880 c3         1 UNL       0.033300
     19 C16         -0.7970    21.3450    45.3500 c3         1 UNL       0.141800
     20 N4          -0.6840    22.7270    44.8360 n3         1 UNL      -0.744600
     21 C17         -1.7600    23.0230    43.8740 c3         1 UNL       0.160600
     22 C18         -0.7460    23.6900    45.9480 c3         1 UNL       0.160600
     23 H1          -1.4960    15.0280    46.3770 ha         1 UNL       0.152000
     24 H2          -3.7330    15.2170    45.2740 ha         1 UNL       0.138000
     25 H3          -4.3250    17.2560    43.9800 ha         1 UNL       0.135000
     26 H4          -2.6980    19.1300    43.7630 ha         1 UNL       0.142000
     27 H5           4.3880    19.6670    46.9150 ha         1 UNL       0.151000
     28 H6           5.8640    18.3060    48.3620 ha         1 UNL       0.137000
     29 H7           5.1420    16.0690    49.1380 ha         1 UNL       0.137000
     30 H8           2.9350    15.1660    48.4780 ha         1 UNL       0.150000
     31 H9           0.9190    20.6620    44.2080 h1         1 UNL       0.076700
     32 H10         -0.6500    20.3510    43.4070 h1         1 UNL       0.076700
     33 H11         -1.8610    21.0600    45.5210 h1         1 UNL       0.043700
     34 H12         -0.2720    21.2470    46.3280 h1         1 UNL       0.043700
     35 H13         -1.6410    24.0520    43.4720 h1         1 UNL       0.032367
     36 H14         -1.7110    22.3340    43.0060 h1         1 UNL       0.032367
     37 H15         -2.7640    22.9360    44.3480 h1         1 UNL       0.032367
     38 H16         -1.6920    23.5800    46.5240 h1         1 UNL       0.032367
     39 H17          0.1170    23.5380    46.6320 h1         1 UNL       0.032367
     40 H18         -0.6730    24.7300    45.5630 h1         1 UNL       0.032367
@<TRIPOS>BOND
     1     1     2 ar  
     2     1     6 ar  
     3     1     9 1   
     4     2     3 ar  
     5     2    23 1   
     6     3     4 ar  
     7     3    24 1   
     8     4     5 ar  
     9     4    25 1   
    10     5     6 ar  
    11     5    26 1   
    12     6     7 1   
    13     7     8 1   
    14     7    18 1   
    15     8     9 ar  
    16     8    13 ar  
    17     9    10 ar  
    18    10    11 ar  
    19    11    12 ar  
    20    11    17 ar  
    21    12    13 ar  
    22    12    14 ar  
    23    14    15 ar  
    24    14    27 1   
    25    15    16 ar  
    26    15    28 1   
    27    16    17 ar  
    28    16    29 1   
    29    17    30 1   
    30    18    19 1   
    31    18    31 1   
    32    18    32 1   
    33    19    20 1   
    34    19    33 1   
    35    19    34 1   
    36    20    21 1   
    37    20    22 1   
    38    21    35 1   
    39    21    36 1   
    40    21    37 1   
    41    22    38 1   
    42    22    39 1   
    43    22    40 1   
@<TRIPOS>SUBSTRUCTURE
     1 UNL         1 TEMP              0 ****  ****    0 ROOT
