@<TRIPOS>MOLECULE
UNL
   52    55     1     0     0
SMALL
bcc


@<TRIPOS>ATOM
      1 C1          -0.8680    16.9660    45.6530 cp         1 UNL      -0.196500
      2 C2          -1.7580    15.9070    45.8020 ca         1 UNL      -0.049000
      3 C3          -3.0180    16.0250    45.1880 ca         1 UNL      -0.166000
      4 C4          -3.3550    17.1860    44.4570 ca         1 UNL      -0.088000
      5 C5          -2.4370    18.2450    44.3270 ca         1 UNL      -0.161000
      6 C6          -1.1860    18.1080    44.9350 ca         1 UNL       0.010800
      7 N1          -0.1620    19.0030    44.9530 na         1 UNL      -0.166000
      8 C7           0.7910    18.4140    45.7100 ca         1 UNL       0.379500
      9 C8           0.3970    17.1760    46.1420 cp         1 UNL       0.356500
     10 N2           1.1740    16.4070    46.9410 nb         1 UNL      -0.594000
     11 C9           2.3960    16.8990    47.3110 ca         1 UNL       0.267300
     12 C10          2.8120    18.1940    46.8640 ca         1 UNL       0.316300
     13 N3           1.9890    18.9390    46.0650 nb         1 UNL      -0.662000
     14 C11          4.0590    18.6920    47.2530 ca         1 UNL      -0.171300
     15 C12          4.8930    17.9240    48.0730 ca         1 UNL      -0.116000
     16 C13          4.4870    16.6580    48.5090 ca         1 UNL      -0.136000
     17 C14          3.2410    16.1450    48.1310 ca         1 UNL      -0.149300
     18 C15         -0.1340    20.3570    44.3990 c3         1 UNL      -0.004700
     19 C16         -0.7870    21.3410    45.3870 c3         1 UNL       0.143800
     20 N4          -0.5770    22.7700    45.0450 n3         1 UNL      -0.733600
     21 C17          0.8390    23.1780    45.1870 c3         1 UNL       0.169800
     22 C18          0.9220    24.5860    45.7870 c3         1 UNL      -0.080400
     23 C19          2.3800    25.0170    45.9860 c3         1 UNL      -0.081400
     24 C20          2.4640    26.4180    46.5830 c3         1 UNL      -0.092100
     25 C21         -1.1290    23.1630    43.7260 c3         1 UNL       0.168800
     26 C22         -2.6530    23.0510    43.6900 c3         1 UNL      -0.097100
     27 H1          -1.4940    15.0260    46.3730 ha         1 UNL       0.153000
     28 H2          -3.7370    15.2210    45.2810 ha         1 UNL       0.138000
     29 H3          -4.3310    17.2640    43.9950 ha         1 UNL       0.135000
     30 H4          -2.7030    19.1360    43.7730 ha         1 UNL       0.141000
     31 H5           4.3840    19.6710    46.9220 ha         1 UNL       0.150000
     32 H6           5.8590    18.3120    48.3720 ha         1 UNL       0.137000
     33 H7           5.1400    16.0720    49.1430 ha         1 UNL       0.138000
     34 H8           2.9370    15.1650    48.4760 ha         1 UNL       0.151000
     35 H9           0.9180    20.6470    44.1950 h1         1 UNL       0.070200
     36 H10         -0.6750    20.3640    43.4300 h1         1 UNL       0.070200
     37 H11         -0.3880    21.1500    46.4080 h1         1 UNL       0.062700
     38 H12         -1.8720    21.1230    45.4600 h1         1 UNL       0.062700
     39 H13          1.3660    23.1510    44.2050 h1         1 UNL       0.034700
     40 H14          1.3900    22.4910    45.8690 h1         1 UNL       0.034700
     41 H15          0.4160    25.3120    45.1150 hc         1 UNL       0.047700
     42 H16          0.3970    24.5920    46.7670 hc         1 UNL       0.047700
     43 H17          2.8930    24.3050    46.6680 hc         1 UNL       0.039200
     44 H18          2.9100    25.0110    45.0080 hc         1 UNL       0.039200
     45 H19          1.9620    26.4460    47.5740 hc         1 UNL       0.033700
     46 H20          3.5290    26.7020    46.7180 hc         1 UNL       0.033700
     47 H21          1.9830    27.1560    45.9070 hc         1 UNL       0.033700
     48 H22         -0.8820    24.2260    43.5210 h1         1 UNL       0.030200
     49 H23         -0.6820    22.5690    42.9010 h1         1 UNL       0.030200
     50 H24         -3.0410    23.5670    42.7860 hc         1 UNL       0.039367
     51 H25         -2.9690    21.9890    43.6360 hc         1 UNL       0.039367
     52 H26         -3.0960    23.5290    44.5900 hc         1 UNL       0.039367
@<TRIPOS>BOND
     1     1     2 ar  
     2     1     6 ar  
     3     1     9 1   
     4     2     3 ar  
     5     2    27 1   
     6     3     4 ar  
     7     3    28 1   
     8     4     5 ar  
     9     4    29 1   
    10     5     6 ar  
    11     5    30 1   
    12     6     7 1   
    13     7     8 1   
    14     7    18 1   
    15     8     9 ar  
    16     8    13 ar  
    17     9    10 ar  
    18    10    11 ar  
    19    11    12 ar  
    20    11    17 ar  
    21    12    13 ar  
    22    12    14 ar  
    23    14    15 ar  
    24    14    31 1   
    25    15    16 ar  
    26    15    32 1   
    27    16    17 ar  
    28    16    33 1   
    29    17    34 1   
    30    18    19 1   
    31    18    35 1   
    32    18    36 1   
    33    19    20 1   
    34    19    37 1   
    35    19    38 1   
    36    20    21 1   
    37    20    25 1   
    38    21    22 1   
    39    21    39 1   
    40    21    40 1   
    41    22    23 1   
    42    22    41 1   
    43    22    42 1   
    44    23    24 1   
    45    23    43 1   
    46    23    44 1   
    47    24    45 1   
    48    24    46 1   
    49    24    47 1   
    50    25    26 1   
    51    25    48 1   
    52    25    49 1   
    53    26    50 1   
    54    26    51 1   
    55    26    52 1   
@<TRIPOS>SUBSTRUCTURE
     1 UNL         1 TEMP              0 ****  ****    0 ROOT
