@<TRIPOS>MOLECULE
UNL
   44    48     1     0     0
SMALL
bcc


@<TRIPOS>ATOM
      1 C1          -0.8690    16.9680    45.6560 cp         1 UNL      -0.197500
      2 C2          -1.7580    15.9070    45.8030 ca         1 UNL      -0.050000
      3 C3          -3.0160    16.0230    45.1850 ca         1 UNL      -0.166000
      4 C4          -3.3530    17.1820    44.4510 ca         1 UNL      -0.088000
      5 C5          -2.4360    18.2430    44.3230 ca         1 UNL      -0.158000
      6 C6          -1.1870    18.1090    44.9350 ca         1 UNL       0.009800
      7 N1          -0.1630    19.0050    44.9540 na         1 UNL      -0.170000
      8 C7           0.7890    18.4160    45.7130 ca         1 UNL       0.378500
      9 C8           0.3950    17.1790    46.1460 cp         1 UNL       0.356500
     10 N2           1.1720    16.4090    46.9440 nb         1 UNL      -0.595000
     11 C9           2.3950    16.9000    47.3120 ca         1 UNL       0.267300
     12 C10          2.8120    18.1940    46.8640 ca         1 UNL       0.316300
     13 N3           1.9890    18.9390    46.0660 nb         1 UNL      -0.662000
     14 C11          4.0610    18.6900    47.2500 ca         1 UNL      -0.171300
     15 C12          4.8960    17.9220    48.0690 ca         1 UNL      -0.117000
     16 C13          4.4880    16.6560    48.5070 ca         1 UNL      -0.136000
     17 C14          3.2410    16.1450    48.1310 ca         1 UNL      -0.149300
     18 C15         -0.1310    20.3560    44.3930 c3         1 UNL       0.033300
     19 C16         -0.7480    21.3510    45.3810 c3         1 UNL       0.137800
     20 N4          -0.8000    22.7050    44.7960 n3         1 UNL      -0.725600
     21 C17         -1.6180    23.6050    45.6110 c3         1 UNL       0.157300
     22 C18         -1.1350    25.0120    45.3150 c3         1 UNL      -0.092900
     23 C19          0.3040    24.8460    44.8600 c3         1 UNL      -0.092900
     24 C20          0.5200    23.3440    44.7170 c3         1 UNL       0.157300
     25 H1          -1.4940    15.0280    46.3760 ha         1 UNL       0.152000
     26 H2          -3.7340    15.2180    45.2770 ha         1 UNL       0.138000
     27 H3          -4.3270    17.2580    43.9860 ha         1 UNL       0.136000
     28 H4          -2.7010    19.1320    43.7670 ha         1 UNL       0.146000
     29 H5           4.3870    19.6680    46.9180 ha         1 UNL       0.150000
     30 H6           5.8620    18.3080    48.3650 ha         1 UNL       0.137000
     31 H7           5.1410    16.0700    49.1400 ha         1 UNL       0.137000
     32 H8           2.9360    15.1660    48.4770 ha         1 UNL       0.151000
     33 H9          -0.6900    20.3800    43.4330 h1         1 UNL       0.076700
     34 H10          0.9210    20.6390    44.1740 h1         1 UNL       0.076700
     35 H11         -0.1730    21.3430    46.3350 h1         1 UNL       0.042200
     36 H12         -1.7820    21.0080    45.6090 h1         1 UNL       0.042200
     37 H13         -1.4860    23.3990    46.6990 h1         1 UNL       0.044950
     38 H14         -2.6910    23.4940    45.3450 h1         1 UNL       0.044950
     39 H15         -1.2060    25.6600    46.2160 hc         1 UNL       0.047700
     40 H16         -1.7430    25.4540    44.4950 hc         1 UNL       0.047700
     41 H17          0.4630    25.3600    43.8860 hc         1 UNL       0.047700
     42 H18          1.0050    25.2710    45.6120 hc         1 UNL       0.047700
     43 H19          1.1990    22.9960    45.5290 h1         1 UNL       0.044950
     44 H20          0.9900    23.1150    43.7360 h1         1 UNL       0.044950
@<TRIPOS>BOND
     1     1     2 ar  
     2     1     6 ar  
     3     1     9 1   
     4     2     3 ar  
     5     2    25 1   
     6     3     4 ar  
     7     3    26 1   
     8     4     5 ar  
     9     4    27 1   
    10     5     6 ar  
    11     5    28 1   
    12     6     7 1   
    13     7     8 1   
    14     7    18 1   
    15     8     9 ar  
    16     8    13 ar  
    17     9    10 ar  
    18    10    11 ar  
    19    11    12 ar  
    20    11    17 ar  
    21    12    13 ar  
    22    12    14 ar  
    23    14    15 ar  
    24    14    29 1   
    25    15    16 ar  
    26    15    30 1   
    27    16    17 ar  
    28    16    31 1   
    29    17    32 1   
    30    18    19 1   
    31    18    33 1   
    32    18    34 1   
    33    19    20 1   
    34    19    35 1   
    35    19    36 1   
    36    20    21 1   
    37    20    24 1   
    38    21    22 1   
    39    21    37 1   
    40    21    38 1   
    41    22    23 1   
    42    22    39 1   
    43    22    40 1   
    44    23    24 1   
    45    23    41 1   
    46    23    42 1   
    47    24    43 1   
    48    24    44 1   
@<TRIPOS>SUBSTRUCTURE
     1 UNL         1 TEMP              0 ****  ****    0 ROOT
