@<TRIPOS>MOLECULE
2-indolo[3,2-b]quinoxalin-6-yl-~{N},~{N}-dimethyl-ethanamine
   59    63     1     0     0
SMALL
USER_CHARGES

@<TRIPOS>ATOM
      1 C1          1.6209   11.8521   29.7377 cp        1 <0>       -0.20155
      2 C2          0.2143   11.8220   29.6602 ca        1 <0>       -0.04706
      3 C3         -0.4777   10.7413   30.2185 ca        1 <0>       -0.17075
      4 C4          0.2076    9.7027   30.8454 ca        1 <0>       -0.08367
      5 C5          1.6025    9.7097   30.9349 ca        1 <0>       -0.16855
      6 C6          2.2835   10.7957   30.3729 ca        1 <0>        0.15469
      7 N1          3.6360   11.0607   30.3151 na        1 <0>       -0.62477
      8 C7          3.8491   12.2442   29.6675 ca        1 <0>        0.51914
      9 C8          2.6223   12.7579   29.2982 cq        1 <0>        0.35594
     10 N2          2.5323   13.9332   28.6350 nb        1 <0>       -0.59145
     11 C9          3.7002   14.5378   28.3751 ca        1 <0>        0.26389
     12 C10         4.9422   13.9848   28.7672 ca        1 <0>        0.31947
     13 N3          5.0349   12.8201   29.4247 nb        1 <0>       -0.66512
     14 C11         6.1116   14.6739   28.4599 ca        1 <0>       -0.17189
     15 C12         6.0846   15.8894   27.7787 ca        1 <0>       -0.11579
     16 C13         4.8679   16.4309   27.3950 ca        1 <0>       -0.13725
     17 C14         3.6884   15.7521   27.6957 ca        1 <0>       -0.14899
     18 C15         4.6766   10.2151   30.8610 c3        1 <0>        0.22411
     19 C16         5.0330   10.5452   32.3115 c3        1 <0>        0.14060
     20 N4          6.0681    9.6916   32.8291 n3        1 <0>       -0.74231
     21 C17         5.5294    8.3863   33.2416 c3        1 <0>        0.15969
     22 C18         6.7604   10.3184   33.9659 c3        1 <0>        0.15969
     23 H1         -0.3333   12.6242   29.1737 ha        1 <0>        0.15075
     24 H2         -1.5626   10.7134   30.1616 ha        1 <0>        0.13781
     25 H3         -0.3500    8.8732   31.2729 ha        1 <0>        0.13486
     26 H4          2.1305    8.8981   31.4241 ha        1 <0>        0.14090
     27 H5          7.0760   14.2639   28.7547 ha        1 <0>        0.15146
     28 H6          7.0111   16.4073   27.5506 ha        1 <0>        0.13639
     29 H7          4.8323   17.3769   26.8633 ha        1 <0>        0.13689
     30 H8          2.7417   16.1919   27.3870 ha        1 <0>        0.14991
     31 H9          5.5677   10.3332   30.2265 h1        1 <0>        0.07442
     32 H10         4.3604    9.1653   30.7683 h1        1 <0>        0.07442
     33 H11         5.4013   11.5727   32.3896 h1        1 <0>        0.04394
     34 H12         4.1628   10.4412   32.9677 h1        1 <0>        0.04394
     35 H13         6.3446    7.7849   33.6216 h1        1 <0>        0.03271
     36 H14         5.0794    7.9118   32.3795 h1        1 <0>        0.03271
     37 H15         4.7876    8.5483   34.0126 h1        1 <0>        0.03271
     38 H16         7.5257    9.6389   34.3167 h1        1 <0>        0.03271
     39 H17         6.0363   10.5083   34.7473 h1        1 <0>        0.03271
     40 H18         7.2038   11.2463   33.6295 h1        1 <0>        0.03271
     41 N4          6.0863    9.6766   32.8382 n3        1 <0>       -0.71527
     42 C17         5.5895    8.3153   33.0875 c3        1 <0>        0.15918
     43 C18         4.7143    8.1832   34.3350 c3        1 <0>       -0.11241
     44 C19         5.4135    8.7441   35.5671 c3        1 <0>       -0.07410
     45 C20         5.9133   10.1616   35.3058 c3        1 <0>       -0.10767
     46 C21         6.7486   10.2700   34.0168 c3        1 <0>        0.17957
     47 C22         8.1456    9.6601   34.1999 c3        1 <0>       -0.08731
     48 H13         5.0274    7.9456   32.2095 h1        1 <0>        0.05034
     49 H14         6.4465    7.6302   33.2134 h1        1 <0>        0.05034
     50 H15         3.7645    8.7093   34.1780 hc        1 <0>        0.04351
     51 H16         4.4675    7.1257   34.5018 hc        1 <0>        0.04351
     52 H17         4.7156    8.7513   36.4155 hc        1 <0>        0.04146
     53 H18         6.2526    8.0961   35.8503 hc        1 <0>        0.04146
     54 H19         5.0467   10.8374   35.2508 hc        1 <0>        0.04422
     55 H20         6.5108   10.4956   36.1692 hc        1 <0>        0.04422
     56 H21         6.9071   11.3604   33.8002 h1        1 <0>        0.05490
     57 H22         8.7048    9.7540   33.2736 hc        1 <0>        0.03910
     58 H23         8.0497    8.6103   34.4610 hc        1 <0>        0.03910
     59 H24         8.6676   10.1857   34.9941 hc        1 <0>        0.03910
@<TRIPOS>BOND
     1    1    6 ar
     2    1    9 ar
     3    1    2 ar
     4    2    3 ar
     5    3    4 ar
     6    4    5 ar
     7    5    6 ar
     8    6    7 ar
     9    7    8 ar
    10    8   13 ar
    11    8    9 ar
    12    9   10 ar
    13   10   11 ar
    14   11   17 ar
    15   11   12 ar
    16   12   13 ar
    17   12   14 ar
    18   14   15 ar
    19   15   16 ar
    20   16   17 ar
    21    7   18 1
    22   18   19 1
    23   19   20 1
    24   20   21 1
    25   20   22 1
    26    2   23 1
    27    3   24 1
    28    4   25 1
    29    5   26 1
    30   14   27 1
    31   15   28 1
    32   16   29 1
    33   17   30 1
    34   18   31 1
    35   18   32 1
    36   19   33 1
    37   19   34 1
    38   21   35 1
    39   21   36 1
    40   21   37 1
    41   22   38 1
    42   22   39 1
    43   22   40 1
    44   19   41 1
    45   41   46 1
    46   41   42 1
    47   42   43 1
    48   43   44 1
    49   44   45 1
    50   45   46 1
    51   46   47 1
    52   42   48 1
    53   42   49 1
    54   43   50 1
    55   43   51 1
    56   44   52 1
    57   44   53 1
    58   45   54 1
    59   45   55 1
    60   46   56 1
    61   47   57 1
    62   47   58 1
    63   47   59 1
@<TRIPOS>SUBSTRUCTURE
     1 <0>         1 GROUP 0 A     ****
