@<TRIPOS>MOLECULE
6-[2-(4-methylpiperazin-1-yl)ethyl]indolo[3,2-b]quinoxaline
   58    62     1     0     0
SMALL
USER_CHARGES

@<TRIPOS>ATOM
      1 C1          1.4970   11.7319   29.7189 cp        1 <0>       -0.20171
      2 C2          0.0955   11.7972   29.5884 ca        1 <0>       -0.04754
      3 C3         -0.6830   10.7237   30.0358 ca        1 <0>       -0.17015
      4 C4         -0.0881    9.5996   30.6048 ca        1 <0>       -0.08377
      5 C5          1.2998    9.5113   30.7451 ca        1 <0>       -0.16823
      6 C6          2.0677   10.5909   30.2940 ca        1 <0>        0.15438
      7 N1          3.4351   10.7731   30.3059 na        1 <0>       -0.62383
      8 C7          3.7458   11.9859   29.7601 ca        1 <0>        0.51814
      9 C8          2.5686   12.6028   29.3875 cq        1 <0>        0.35641
     10 N2          2.5772   13.8279   28.8145 nb        1 <0>       -0.59151
     11 C9          3.7892   14.3749   28.6447 ca        1 <0>        0.26520
     12 C10         4.9783   13.7162   29.0376 ca        1 <0>        0.31804
     13 N3          4.9732   12.5019   29.6057 nb        1 <0>       -0.66462
     14 C11         6.1989   14.3508   28.8272 ca        1 <0>       -0.17200
     15 C12         6.2735   15.6132   28.2416 ca        1 <0>       -0.11612
     16 C13         5.1085   16.2582   27.8572 ca        1 <0>       -0.13675
     17 C14         3.8788   15.6351   28.0615 ca        1 <0>       -0.14897
     18 C15         4.3993    9.8245   30.8221 c3        1 <0>        0.22337
     19 C16         4.7153   10.0215   32.3057 c3        1 <0>        0.14490
     20 N4          5.6904    9.0518   32.8008 n3        1 <0>       -0.73793
     21 C17         5.0603    7.7441   33.0198 c3        1 <0>        0.17175
     22 C18         6.0812    6.7272   33.5419 c3        1 <0>        0.16912
     23 N5          6.7096    7.2062   34.7791 n3        1 <0>       -0.73527
     24 C19         7.3406    8.5135   34.5599 c3        1 <0>        0.16912
     25 C20         6.3207    9.5309   34.0370 c3        1 <0>        0.17175
     26 C21         7.6836    6.2364   35.2759 c3        1 <0>        0.15897
     27 H1         -0.3821   12.6668   29.1460 ha        1 <0>        0.14996
     28 H2         -1.7643   10.7692   29.9377 ha        1 <0>        0.13838
     29 H3         -0.7120    8.7774   30.9463 ha        1 <0>        0.13480
     30 H4          1.7572    8.6333   31.1887 ha        1 <0>        0.14085
     31 H5          7.1238   13.8594   29.1241 ha        1 <0>        0.15115
     32 H6          7.2383   16.0869   28.0880 ha        1 <0>        0.13645
     33 H7          5.1522   17.2417   27.3994 ha        1 <0>        0.13699
     34 H8          2.9739   16.1560   27.7536 ha        1 <0>        0.15025
     35 H9          5.3212    9.9331   30.2313 h1        1 <0>        0.07491
     36 H10         4.0242    8.8068   30.6369 h1        1 <0>        0.07491
     37 H11         5.1416   11.0148   32.4765 h1        1 <0>        0.04469
     38 H12         3.8143    9.9240   32.9199 h1        1 <0>        0.04469
     39 H13         4.2289    7.8272   33.7288 h1        1 <0>        0.03752
     40 H14         4.6551    7.3688   32.0752 h1        1 <0>        0.03752
     41 H15         5.5588    5.7820   33.7336 h1        1 <0>        0.03782
     42 H16         6.8365    6.5318   32.7685 h1        1 <0>        0.03782
     43 H17         7.7499    8.8904   35.5051 h1        1 <0>        0.03782
     44 H18         8.1765    8.4314   33.8518 h1        1 <0>        0.03782
     45 H19         5.5663    9.7240   34.8080 h1        1 <0>        0.03752
     46 H20         6.8442   10.4717   33.8418 h1        1 <0>        0.03752
     47 H21         8.1279    6.6204   36.1882 h1        1 <0>        0.03259
     48 H22         8.4512    6.0888   34.5231 h1        1 <0>        0.03259
     49 H23         7.1774    5.2978   35.4764 h1        1 <0>        0.03259
     50 N4          5.6747    9.0675   32.7928 n3        1 <0>       -0.74305
     51 C17         5.0416    7.7717   33.0832 c3        1 <0>        0.15895
     52 C18         6.3565    9.5619   33.9991 c3        1 <0>        0.15895
     53 H13         5.8025    7.0929   33.4448 h1        1 <0>        0.03197
     54 H14         4.5993    7.3928   32.1711 h1        1 <0>        0.03197
     55 H15         4.2799    7.9221   33.8369 h1        1 <0>        0.03197
     56 H16         7.0642    8.8107   34.3237 h1        1 <0>        0.03197
     57 H17         5.6138    9.7382   34.7661 h1        1 <0>        0.03197
     58 H18         6.8687   10.4824   33.7519 h1        1 <0>        0.03197
@<TRIPOS>BOND
     1    1    6 ar
     2    1    9 ar
     3    1    2 ar
     4    2    3 ar
     5    3    4 ar
     6    4    5 ar
     7    5    6 ar
     8    6    7 ar
     9    7    8 ar
    10    8   13 ar
    11    8    9 ar
    12    9   10 ar
    13   10   11 ar
    14   11   17 ar
    15   11   12 ar
    16   12   13 ar
    17   12   14 ar
    18   14   15 ar
    19   15   16 ar
    20   16   17 ar
    21    7   18 1
    22   18   19 1
    23   19   20 1
    24   20   25 1
    25   20   21 1
    26   21   22 1
    27   22   23 1
    28   23   24 1
    29   24   25 1
    30   23   26 1
    31    2   27 1
    32    3   28 1
    33    4   29 1
    34    5   30 1
    35   14   31 1
    36   15   32 1
    37   16   33 1
    38   17   34 1
    39   18   35 1
    40   18   36 1
    41   19   37 1
    42   19   38 1
    43   21   39 1
    44   21   40 1
    45   22   41 1
    46   22   42 1
    47   24   43 1
    48   24   44 1
    49   25   45 1
    50   25   46 1
    51   26   47 1
    52   26   48 1
    53   26   49 1
    54   19   50 1
    55   50   51 1
    56   50   52 1
    57   51   53 1
    58   51   54 1
    59   51   55 1
    60   52   56 1
    61   52   57 1
    62   52   58 1
@<TRIPOS>SUBSTRUCTURE
     1 <0>         1 GROUP 0 A     ****
