@<TRIPOS>MOLECULE
2-indolo[3,2-b]quinoxalin-6-yl-~{N},~{N}-dimethyl-ethanamine
   58    62     1     0     0
SMALL
USER_CHARGES

@<TRIPOS>ATOM
      1 C1          1.5794   12.0915   29.6383 cp        1 <0>       -0.20171
      2 C2          0.1728   12.0614   29.5608 ca        1 <0>       -0.04754
      3 C3         -0.5192   10.9807   30.1191 ca        1 <0>       -0.17015
      4 C4          0.1661    9.9421   30.7460 ca        1 <0>       -0.08377
      5 C5          1.5610    9.9491   30.8355 ca        1 <0>       -0.16823
      6 C6          2.2419   11.0351   30.2736 ca        1 <0>        0.15438
      7 N1          3.5945   11.3001   30.2157 na        1 <0>       -0.62383
      8 C7          3.8076   12.4836   29.5682 ca        1 <0>        0.51814
      9 C8          2.5808   12.9973   29.1988 cq        1 <0>        0.35641
     10 N2          2.4908   14.1726   28.5356 nb        1 <0>       -0.59151
     11 C9          3.6587   14.7772   28.2757 ca        1 <0>        0.26520
     12 C10         4.9007   14.2242   28.6679 ca        1 <0>        0.31804
     13 N3          4.9934   13.0595   29.3253 nb        1 <0>       -0.66462
     14 C11         6.0701   14.9133   28.3606 ca        1 <0>       -0.17200
     15 C12         6.0431   16.1288   27.6793 ca        1 <0>       -0.11612
     16 C13         4.8263   16.6703   27.2957 ca        1 <0>       -0.13675
     17 C14         3.6469   15.9915   27.5963 ca        1 <0>       -0.14897
     18 C15         4.6351   10.4545   30.7617 c3        1 <0>        0.22337
     19 C16         4.9915   10.7846   32.2121 c3        1 <0>        0.14490
     20 N4          6.0265    9.9310   32.7297 n3        1 <0>       -0.74305
     21 C17         5.4879    8.6257   33.1423 c3        1 <0>        0.15895
     22 C18         6.7188   10.5578   33.8666 c3        1 <0>        0.15895
     23 H1         -0.3748   12.8636   29.0743 ha        1 <0>        0.14996
     24 H2         -1.6041   10.9528   30.0622 ha        1 <0>        0.13838
     25 H3         -0.3915    9.1126   31.1735 ha        1 <0>        0.13480
     26 H4          2.0890    9.1375   31.3247 ha        1 <0>        0.14085
     27 H5          7.0345   14.5033   28.6553 ha        1 <0>        0.15115
     28 H6          6.9696   16.6467   27.4512 ha        1 <0>        0.13645
     29 H7          4.7908   17.6162   26.7639 ha        1 <0>        0.13699
     30 H8          2.7002   16.4313   27.2876 ha        1 <0>        0.15025
     31 H9          5.5262   10.5726   30.1271 h1        1 <0>        0.07491
     32 H10         4.3189    9.4047   30.6689 h1        1 <0>        0.07491
     33 H11         5.3597   11.8121   32.2902 h1        1 <0>        0.04469
     34 H12         4.1213   10.6806   32.8683 h1        1 <0>        0.04469
     35 H13         6.3030    8.0242   33.5223 h1        1 <0>        0.03197
     36 H14         5.0379    8.1512   32.2801 h1        1 <0>        0.03197
     37 H15         4.7461    8.7876   33.9132 h1        1 <0>        0.03197
     38 H16         7.4842    9.8783   34.2173 h1        1 <0>        0.03197
     39 H17         5.9947   10.7477   34.6479 h1        1 <0>        0.03197
     40 H18         7.1622   11.4857   33.5301 h1        1 <0>        0.03197
     41 N4          6.0435    9.9170   32.7382 n3        1 <0>       -0.73793
     42 C17         5.5061    8.5944   33.0805 c3        1 <0>        0.17175
     43 C18         6.6077    7.6847   33.6351 c3        1 <0>        0.16912
     44 N5          7.2489    8.2953   34.8060 n3        1 <0>       -0.73527
     45 C19         7.7872    9.6175   34.4637 c3        1 <0>        0.16912
     46 C20         6.6865   10.5277   33.9081 c3        1 <0>        0.17175
     47 C21         8.2999    7.4277   35.3339 c3        1 <0>        0.15897
     48 H13         4.6973    8.6818   33.8146 h1        1 <0>        0.03752
     49 H14         5.0916    8.1233   32.1841 h1        1 <0>        0.03752
     50 H15         6.1537    6.7273   33.9184 h1        1 <0>        0.03782
     51 H16         7.3455    7.4761   32.8483 h1        1 <0>        0.03782
     52 H17         8.2057   10.0906   35.3603 h1        1 <0>        0.03782
     53 H18         8.6004    9.5316   33.7300 h1        1 <0>        0.03782
     54 H19         5.9498   10.7339   34.6927 h1        1 <0>        0.03752
     55 H20         7.1418   11.4806   33.6216 h1        1 <0>        0.03752
     56 H21         8.7516    7.9075   36.1958 h1        1 <0>        0.03259
     57 H22         9.0475    7.2689   34.5635 h1        1 <0>        0.03259
     58 H23         7.8619    6.4785   35.6249 h1        1 <0>        0.03259
@<TRIPOS>BOND
     1    1    6 ar
     2    1    9 ar
     3    1    2 ar
     4    2    3 ar
     5    3    4 ar
     6    4    5 ar
     7    5    6 ar
     8    6    7 ar
     9    7    8 ar
    10    8   13 ar
    11    8    9 ar
    12    9   10 ar
    13   10   11 ar
    14   11   17 ar
    15   11   12 ar
    16   12   13 ar
    17   12   14 ar
    18   14   15 ar
    19   15   16 ar
    20   16   17 ar
    21    7   18 1
    22   18   19 1
    23   19   20 1
    24   20   21 1
    25   20   22 1
    26    2   23 1
    27    3   24 1
    28    4   25 1
    29    5   26 1
    30   14   27 1
    31   15   28 1
    32   16   29 1
    33   17   30 1
    34   18   31 1
    35   18   32 1
    36   19   33 1
    37   19   34 1
    38   21   35 1
    39   21   36 1
    40   21   37 1
    41   22   38 1
    42   22   39 1
    43   22   40 1
    44   19   41 1
    45   41   46 1
    46   41   42 1
    47   42   43 1
    48   43   44 1
    49   44   45 1
    50   45   46 1
    51   44   47 1
    52   42   48 1
    53   42   49 1
    54   43   50 1
    55   43   51 1
    56   45   52 1
    57   45   53 1
    58   46   54 1
    59   46   55 1
    60   47   56 1
    61   47   57 1
    62   47   58 1
@<TRIPOS>SUBSTRUCTURE
     1 <0>         1 GROUP 0 A     ****
