@<TRIPOS>MOLECULE
UNL
   52    63     1     0     0
SMALL
bcc


@<TRIPOS>ATOM
      1 C1          -1.2700    18.1600    44.9360 c3         1 UNL      -0.090000
      2 C2          -2.5660    18.3950    44.4830 c3         1 UNL      -0.009700
      3 C3          -3.4640    17.3100    44.4860 c3         1 UNL      -0.127700
      4 C4          -3.0520    16.0380    44.9430 c3         1 UNL      -0.048700
      5 C5          -1.7350    15.8320    45.4000 c3         1 UNL      -0.121700
      6 C6          -0.8530    16.9150    45.3790 c3         1 UNL       0.215200
      7 N1           0.4410    16.9480    45.7950 n3         1 UNL      -0.646600
      8 C7           0.8200    18.2360    45.6270 c3         1 UNL       0.369400
      9 C8          -0.1920    18.9930    45.1010 c3         1 UNL       0.143200
     10 N2          -0.0650    20.3250    44.8910 n3         1 UNL      -0.543600
     11 C9           1.1290    20.9110    45.2050 c3         1 UNL       0.254400
     12 C10          2.1890    20.1240    45.7580 c3         1 UNL       0.304400
     13 N3           2.0110    18.7860    45.9680 n3         1 UNL      -0.608600
     14 C11          3.4000    20.7350    46.0930 c3         1 UNL      -0.065700
     15 C12          3.5720    22.1080    45.8820 c3         1 UNL      -0.077700
     16 C13          2.5400    22.8760    45.3280 c3         1 UNL      -0.096700
     17 C14          1.3210    22.2820    44.9930 c3         1 UNL      -0.044700
     18 C15          1.2240    15.8700    46.3970 c3         1 UNL       0.209800
     19 C16          0.9160    15.7660    47.8930 c3         1 UNL       0.145800
     20 N4           1.8140    14.7780    48.5350 n3         1 UNL      -0.750600
     21 C17          2.1890    15.1580    49.9170 c3         1 UNL       0.179800
     22 C18          3.4470    16.0330    49.8890 c3         1 UNL      -0.102400
     23 C19          3.8620    16.4580    51.2950 c3         1 UNL      -0.092100
     24 C20          1.3100    13.3890    48.4350 c3         1 UNL       0.179800
     25 C21          0.0680    13.1060    49.3190 c3         1 UNL      -0.102400
     26 C22         -1.0800    12.4930    48.5200 c3         1 UNL      -0.092100
     27 H1          -2.8740    19.3750    44.1450 hc         1 UNL       0.112700
     28 H2          -4.4800    17.4570    44.1450 hc         1 UNL       0.097700
     29 H3          -3.7570    15.2170    44.9490 hc         1 UNL       0.095700
     30 H4          -1.4270    14.8620    45.7590 hc         1 UNL       0.102700
     31 H5           4.2090    20.1510    46.5160 hc         1 UNL       0.111700
     32 H6           4.5120    22.5770    46.1420 hc         1 UNL       0.097700
     33 H7           2.6820    23.9370    45.1730 hc         1 UNL       0.097700
     34 H8           0.5240    22.8860    44.5740 hc         1 UNL       0.110700
     35 H9           0.9930    14.9130    45.8850 h1         1 UNL       0.076200
     36 H10          2.3080    16.0700    46.2540 h1         1 UNL       0.076200
     37 H11          1.0610    16.7790    48.3340 h1         1 UNL       0.044700
     38 H12         -0.1530    15.5020    48.0350 h1         1 UNL       0.044700
     39 H13          2.4200    14.2540    50.5260 h1         1 UNL       0.039700
     40 H14          1.3570    15.6950    50.4270 h1         1 UNL       0.039700
     41 H15          3.2690    16.9430    49.2780 hc         1 UNL       0.046700
     42 H16          4.2790    15.4620    49.4260 hc         1 UNL       0.046700
     43 H17          4.0120    15.5660    51.9420 hc         1 UNL       0.033867
     44 H18          3.0840    17.1150    51.7420 hc         1 UNL       0.033867
     45 H19          4.8160    17.0230    51.2430 hc         1 UNL       0.033867
     46 H20          1.1070    13.1420    47.3700 h1         1 UNL       0.039700
     47 H21          2.1260    12.6930    48.7310 h1         1 UNL       0.039700
     48 H22          0.3500    12.3980    50.1290 hc         1 UNL       0.046700
     49 H23         -0.3030    14.0230    49.8180 hc         1 UNL       0.046700
     50 H24         -0.7800    11.5070    48.1020 hc         1 UNL       0.033867
     51 H25         -1.3740    13.1730    47.6950 hc         1 UNL       0.033867
     52 H26         -1.9600    12.3520    49.1850 hc         1 UNL       0.033867
@<TRIPOS>BOND
     1     1     2 1   
     2     1     2 1   
     3     1     6 1   
     4     1     9 1   
     5     2     3 1   
     6     2    27 1   
     7     3     4 1   
     8     3     4 1   
     9     3    28 1   
    10     4     5 1   
    11     4    29 1   
    12     5     6 1   
    13     5     6 1   
    14     5    30 1   
    15     6     7 1   
    16     7     8 1   
    17     7    18 1   
    18     8     9 1   
    19     8     9 1   
    20     8    13 1   
    21     9    10 1   
    22    10    11 1   
    23    10    11 1   
    24    11    12 1   
    25    11    17 1   
    26    12    13 1   
    27    12    13 1   
    28    12    14 1   
    29    14    15 1   
    30    14    15 1   
    31    14    31 1   
    32    15    16 1   
    33    15    32 1   
    34    16    17 1   
    35    16    17 1   
    36    16    33 1   
    37    17    34 1   
    38    18    19 1   
    39    18    35 1   
    40    18    36 1   
    41    19    20 1   
    42    19    37 1   
    43    19    38 1   
    44    20    21 1   
    45    20    24 1   
    46    21    22 1   
    47    21    39 1   
    48    21    40 1   
    49    22    23 1   
    50    22    41 1   
    51    22    42 1   
    52    23    43 1   
    53    23    44 1   
    54    23    45 1   
    55    24    25 1   
    56    24    46 1   
    57    24    47 1   
    58    25    26 1   
    59    25    48 1   
    60    25    49 1   
    61    26    50 1   
    62    26    51 1   
    63    26    52 1   
@<TRIPOS>SUBSTRUCTURE
     1 UNL         1 TEMP              0 ****  ****    0 ROOT
