@<TRIPOS>MOLECULE
2-indolo[3,2-b]quinoxalin-6-yl-~{N},~{N}-dimethyl-ethanamine
   50    55     1     0     0
SMALL
USER_CHARGES

@<TRIPOS>ATOM
      1 C1          2.6888   11.7907   29.8559 cp        1 <0>       -0.20168
      2 C2          1.3493   11.3559   29.9028 ca        1 <0>       -0.05141
      3 C3          1.0398   10.1677   30.5742 ca        1 <0>       -0.17484
      4 C4          2.0378    9.4167   31.1919 ca        1 <0>       -0.07731
      5 C5          3.3736    9.8271   31.1591 ca        1 <0>       -0.16224
      6 C6          3.6707   11.0169   30.4848 ca        1 <0>        0.15515
      7 N1          4.8813   11.6508   30.2958 na        1 <0>       -0.61928
      8 C7          4.6977   12.7943   29.5719 ca        1 <0>        0.51212
      9 C8          3.3524   12.9087   29.2848 cq        1 <0>        0.36066
     10 N2          2.8807   13.9570   28.5722 nb        1 <0>       -0.59683
     11 C9          3.8028   14.8478   28.1807 ca        1 <0>        0.26829
     12 C10         5.1756   14.7019   28.4913 ca        1 <0>        0.31688
     13 N3          5.6463   13.6640   29.1974 nb        1 <0>       -0.66269
     14 C11         6.0713   15.6703   28.0482 ca        1 <0>       -0.17126
     15 C12         5.6470   16.7737   27.3100 ca        1 <0>       -0.11710
     16 C13         4.3022   16.9165   27.0063 ca        1 <0>       -0.13580
     17 C14         3.3934   15.9545   27.4432 ca        1 <0>       -0.15025
     18 C15         6.1571   11.1794   30.7920 c3        1 <0>        0.22333
     19 C16         6.5010   11.7043   32.1870 c3        1 <0>        0.14321
     20 N4          7.7719   11.2216   32.6559 n3        1 <0>       -0.74134
     21 C17         7.6639    9.8514   33.1805 c3        1 <0>        0.15853
     22 C18         8.3292   12.1022   33.6943 c3        1 <0>        0.15853
     23 H1          0.5609   11.9306   29.4251 ha        1 <0>        0.14603
     24 H2          0.0083    9.8281   30.6135 ha        1 <0>        0.13419
     25 H3          1.7749    8.4971   31.7086 ha        1 <0>        0.13572
     26 H4          4.1463    9.2380   31.6417 ha        1 <0>        0.14088
     27 H5          7.1310   15.5749   28.2787 ha        1 <0>        0.15134
     28 H6          6.3659   17.5154   26.9757 ha        1 <0>        0.13631
     29 H7          3.9579   17.7708   26.4316 ha        1 <0>        0.13693
     30 H8          2.3410   16.0824   27.1957 ha        1 <0>        0.14982
     31 H9          6.9301   11.4985   30.0771 h1        1 <0>        0.07508
     32 H10         6.1528   10.0791   30.7815 h1        1 <0>        0.07508
     33 H11         6.5604   12.7969   32.1796 h1        1 <0>        0.04439
     34 H12         5.7454   11.4062   32.9209 h1        1 <0>        0.04439
     35 H13         8.6423    9.5368   33.5187 h1        1 <0>        0.03253
     36 H14         7.3126    9.2056   32.3865 h1        1 <0>        0.03253
     37 H15         6.9616    9.8525   34.0037 h1        1 <0>        0.03253
     38 H16         9.2807   11.6967   34.0117 h1        1 <0>        0.03253
     39 H17         7.6364   12.1359   34.5249 h1        1 <0>        0.03253
     40 H18         8.4607   13.0902   33.2731 h1        1 <0>        0.03253
     41 C2          2.2915   10.6498   29.9507 ca        1 <0>        0.03717
     42 C3          2.3777    9.8515   30.5555 ca        1 <0>       -0.06874
     43 C19         1.6451    9.1671   30.5888 ca        1 <0>       -0.10899
     44 C20         0.8256    9.2799   30.0178 ca        1 <0>       -0.13328
     45 C21         0.7432   10.0830   29.4120 ca        1 <0>       -0.11653
     46 C22         1.4770   10.7640   29.3818 ca        1 <0>       -0.11925
     47 H17         1.7088    8.5712   31.0398 ha        1 <0>        0.13271
     48 H18         0.2771    8.7690   30.0418 ha        1 <0>        0.13470
     49 H19         0.1329   10.1698   28.9848 ha        1 <0>        0.13578
     50 H20         1.4156   11.3606   28.9315 ha        1 <0>        0.16044
@<TRIPOS>BOND
     1    1    6 ar
     2    1    9 ar
     3    1    2 ar
     4    2    3 ar
     5    3    4 ar
     6    4    5 ar
     7    5    6 ar
     8    6    7 ar
     9    7    8 ar
    10    8   13 ar
    11    8    9 ar
    12    9   10 ar
    13   10   11 ar
    14   11   17 ar
    15   11   12 ar
    16   12   13 ar
    17   12   14 ar
    18   14   15 ar
    19   15   16 ar
    20   16   17 ar
    21    7   18 1
    22   18   19 1
    23   19   20 1
    24   20   21 1
    25   20   22 1
    26    2   23 1
    27    3   24 1
    28    4   25 1
    29    5   26 1
    30   14   27 1
    31   15   28 1
    32   16   29 1
    33   17   30 1
    34   18   31 1
    35   18   32 1
    36   19   33 1
    37   19   34 1
    38   21   35 1
    39   21   36 1
    40   21   37 1
    41   22   38 1
    42   22   39 1
    43   22   40 1
    44    1   41 ar
    45   41   46 ar
    46   41   42 ar
    47    4   42 ar
    48   42   43 ar
    49   43   44 ar
    50   44   45 ar
    51   45   46 ar
    52   43   47 1
    53   44   48 1
    54   45   49 1
    55   46   50 1
@<TRIPOS>SUBSTRUCTURE
     1 <0>         1 GROUP 0 A     ****
