@<TRIPOS>MOLECULE
UNL
   50    54     1     0     0
SMALL
bcc


@<TRIPOS>ATOM
      1 C1           1.0630    17.2690    46.5260 cp         1 UNL      -0.196500
      2 C2           0.0290    16.3390    46.4610 ca         1 UNL      -0.049000
      3 C3          -1.1000    16.6750    45.6920 ca         1 UNL      -0.167000
      4 C4          -1.1640    17.9120    45.0110 ca         1 UNL      -0.088000
      5 C5          -0.1010    18.8310    45.0910 ca         1 UNL      -0.161000
      6 C6           1.0090    18.4860    45.8660 ca         1 UNL       0.011800
      7 N1           2.1450    19.2070    46.0680 na         1 UNL      -0.170000
      8 C7           2.9160    18.4150    46.8470 ca         1 UNL       0.378500
      9 C8           2.2860    17.2380    47.1480 cp         1 UNL       0.355500
     10 N2           2.8730    16.2730    47.8940 nb         1 UNL      -0.595000
     11 C9           4.1370    16.5040    48.3610 ca         1 UNL       0.267300
     12 C10          4.8020    17.7320    48.0480 ca         1 UNL       0.316300
     13 N3           4.1730    18.6760    47.2840 nb         1 UNL      -0.659000
     14 C11          6.0970    17.9590    48.5250 ca         1 UNL      -0.170300
     15 C12          6.7340    16.9880    49.3050 ca         1 UNL      -0.117000
     16 C13          6.0840    15.7870    49.6110 ca         1 UNL      -0.136000
     17 C14          4.7890    15.5440    49.1410 ca         1 UNL      -0.149300
     18 C15          2.5130    20.4940    45.4770 c3         1 UNL       0.034300
     19 C16          3.0800    20.2840    44.0720 c3         1 UNL       0.134800
     20 N4           3.4550    21.5850    43.4730 n3         1 UNL      -0.722600
     21 C17          4.6570    21.5020    42.6160 c3         1 UNL       0.165300
     22 C18          4.3700    20.7940    41.2850 c3         1 UNL      -0.108900
     23 C19          3.2490    21.5220    40.5300 c3         1 UNL      -0.064700
     24 C20          1.9980    21.6300    41.4150 c3         1 UNL      -0.108900
     25 C21          2.3330    22.2600    42.7800 c3         1 UNL       0.165300
     26 C22          2.9240    20.8010    39.2170 c3         1 UNL      -0.090100
     27 H1           0.0920    15.3910    46.9780 ha         1 UNL       0.152000
     28 H2          -1.9240    15.9780    45.6180 ha         1 UNL       0.138000
     29 H3          -2.0370    18.1530    44.4190 ha         1 UNL       0.135000
     30 H4          -0.1500    19.7730    44.5610 ha         1 UNL       0.142000
     31 H5           6.6100    18.8840    48.2940 ha         1 UNL       0.151000
     32 H6           7.7360    17.1660    49.6730 ha         1 UNL       0.137000
     33 H7           6.5860    15.0420    50.2150 ha         1 UNL       0.137000
     34 H8           4.2960    14.6110    49.3840 ha         1 UNL       0.150000
     35 H9           1.6220    21.1550    45.4470 h1         1 UNL       0.076200
     36 H10          3.2750    20.9960    46.1120 h1         1 UNL       0.076200
     37 H11          3.9670    19.6190    44.1700 h1         1 UNL       0.044700
     38 H12          2.3400    19.7410    43.4470 h1         1 UNL       0.044700
     39 H13          5.4800    20.9770    43.1490 h1         1 UNL       0.051450
     40 H14          5.0290    22.5300    42.4120 h1         1 UNL       0.051450
     41 H15          4.0850    19.7360    41.4770 hc         1 UNL       0.045950
     42 H16          5.2960    20.7950    40.6710 hc         1 UNL       0.045950
     43 H17          3.5960    22.5490    40.2780 hc         1 UNL       0.048700
     44 H18          1.2420    22.2680    40.9060 hc         1 UNL       0.045950
     45 H19          1.5380    20.6290    41.5560 hc         1 UNL       0.045950
     46 H20          2.5990    23.3290    42.6260 h1         1 UNL       0.051450
     47 H21          1.4220    22.2550    43.4150 h1         1 UNL       0.051450
     48 H22          2.5750    19.7640    39.4130 hc         1 UNL       0.035033
     49 H23          2.1290    21.3490    38.6670 hc         1 UNL       0.035033
     50 H24          3.8260    20.7590    38.5710 hc         1 UNL       0.035033
@<TRIPOS>BOND
     1     1     2 ar  
     2     1     6 ar  
     3     1     9 1   
     4     2     3 ar  
     5     2    27 1   
     6     3     4 ar  
     7     3    28 1   
     8     4     5 ar  
     9     4    29 1   
    10     5     6 ar  
    11     5    30 1   
    12     6     7 1   
    13     7     8 1   
    14     7    18 1   
    15     8     9 ar  
    16     8    13 ar  
    17     9    10 ar  
    18    10    11 ar  
    19    11    12 ar  
    20    11    17 ar  
    21    12    13 ar  
    22    12    14 ar  
    23    14    15 ar  
    24    14    31 1   
    25    15    16 ar  
    26    15    32 1   
    27    16    17 ar  
    28    16    33 1   
    29    17    34 1   
    30    18    19 1   
    31    18    35 1   
    32    18    36 1   
    33    19    20 1   
    34    19    37 1   
    35    19    38 1   
    36    20    21 1   
    37    20    25 1   
    38    21    22 1   
    39    21    39 1   
    40    21    40 1   
    41    22    23 1   
    42    22    41 1   
    43    22    42 1   
    44    23    24 1   
    45    23    26 1   
    46    23    43 1   
    47    24    25 1   
    48    24    44 1   
    49    24    45 1   
    50    25    46 1   
    51    25    47 1   
    52    26    48 1   
    53    26    49 1   
    54    26    50 1   
@<TRIPOS>SUBSTRUCTURE
     1 UNL         1 TEMP              0 ****  ****    0 ROOT
