@<TRIPOS>MOLECULE
UNL
   58    62     1     0     0
SMALL
bcc


@<TRIPOS>ATOM
      1 C1           0.3450    17.1580    46.1540 cp         1 UNL      -0.196500
      2 C2           1.1740    16.3800    46.9780 ca         1 UNL       0.035000
      3 C3           2.4360    16.9290    47.3450 ca         1 UNL      -0.070000
      4 C4           2.8170    18.2120    46.8850 ca         1 UNL      -0.074000
      5 C5           1.9640    18.9640    46.0610 ca         1 UNL      -0.152000
      6 C6           0.7310    18.4150    45.7040 ca         1 UNL       0.017800
      7 N1          -0.2320    18.9870    44.9330 na         1 UNL      -0.169000
      8 C7          -1.2360    18.0860    44.9150 ca         1 UNL       0.372500
      9 C8          -0.9210    16.9650    45.6360 cp         1 UNL       0.362500
     10 N2          -1.7890    15.9350    45.7750 nb         1 UNL      -0.604000
     11 C9          -3.0090    16.0310    45.1660 ca         1 UNL       0.272300
     12 C10         -3.3420    17.2010    44.4140 ca         1 UNL       0.314300
     13 N3          -2.4390    18.2210    44.3040 nb         1 UNL      -0.654000
     14 C11         -4.5910    17.2930    43.7930 ca         1 UNL      -0.168300
     15 C12         -5.5070    16.2410    43.9070 ca         1 UNL      -0.119000
     16 C13         -5.1820    15.0960    44.6440 ca         1 UNL      -0.134000
     17 C14         -3.9370    14.9910    45.2740 ca         1 UNL      -0.152300
     18 C15         -0.2430    20.3270    44.3440 c3         1 UNL       0.034300
     19 C16         -0.6760    21.3600    45.3920 c3         1 UNL       0.150800
     20 N4          -0.9410    22.6800    44.7800 n3         1 UNL      -0.748600
     21 C17         -1.7080    23.5750    45.6750 c3         1 UNL       0.179800
     22 C18         -3.2110    23.4460    45.3970 c3         1 UNL      -0.097900
     23 C19         -3.5700    23.8880    43.9800 c3         1 UNL      -0.091100
     24 C20          0.2230    23.3340    44.1260 c3         1 UNL       0.179800
     25 C21          1.5160    23.4170    44.9690 c3         1 UNL      -0.097900
     26 C22          1.3900    24.2970    46.2100 c3         1 UNL      -0.091100
     27 C23          3.2980    16.1880    48.1680 ca         1 UNL      -0.111000
     28 C24          2.9200    14.9220    48.6230 ca         1 UNL      -0.135000
     29 C25          1.6830    14.3830    48.2630 ca         1 UNL      -0.118000
     30 C26          0.8090    15.1050    47.4440 ca         1 UNL      -0.118000
     31 H1           3.7750    18.6330    47.1670 ha         1 UNL       0.136000
     32 H2           2.2640    19.9450    45.7200 ha         1 UNL       0.142000
     33 H3          -4.8530    18.1730    43.2200 ha         1 UNL       0.151000
     34 H4          -6.4730    16.3130    43.4220 ha         1 UNL       0.137000
     35 H5          -5.8980    14.2880    44.7260 ha         1 UNL       0.137000
     36 H6          -3.6960    14.1000    45.8420 ha         1 UNL       0.149000
     37 H7          -0.9480    20.3530    43.4850 h1         1 UNL       0.077200
     38 H8           0.7670    20.5650    43.9540 h1         1 UNL       0.077200
     39 H9          -1.6110    20.9800    45.8600 h1         1 UNL       0.041700
     40 H10          0.0770    21.4340    46.2050 h1         1 UNL       0.041700
     41 H11         -1.4250    24.6430    45.5410 h1         1 UNL       0.040700
     42 H12         -1.5240    23.3290    46.7440 h1         1 UNL       0.040700
     43 H13         -3.7650    24.0810    46.1210 hc         1 UNL       0.041450
     44 H14         -3.5370    22.3950    45.5490 hc         1 UNL       0.041450
     45 H15         -3.2460    24.9360    43.8080 hc         1 UNL       0.034533
     46 H16         -4.6710    23.8290    43.8410 hc         1 UNL       0.034533
     47 H17         -3.0850    23.2260    43.2310 hc         1 UNL       0.034533
     48 H18         -0.0530    24.3530    43.7760 h1         1 UNL       0.040700
     49 H19          0.4590    22.7770    43.1940 h1         1 UNL       0.040700
     50 H20          2.3070    23.8570    44.3240 hc         1 UNL       0.041450
     51 H21          1.8770    22.4090    45.2560 hc         1 UNL       0.041450
     52 H22          0.9760    25.2920    45.9440 hc         1 UNL       0.034533
     53 H23          2.3940    24.4420    46.6610 hc         1 UNL       0.034533
     54 H24          0.7500    23.8100    46.9730 hc         1 UNL       0.034533
     55 H25          4.2620    16.5880    48.4610 ha         1 UNL       0.131000
     56 H26          3.5900    14.3560    49.2580 ha         1 UNL       0.133000
     57 H27          1.3990    13.4010    48.6190 ha         1 UNL       0.134000
     58 H28         -0.1390    14.6580    47.1830 ha         1 UNL       0.160000
@<TRIPOS>BOND
     1     1     2 ar  
     2     1     6 ar  
     3     1     9 1   
     4     2     3 ar  
     5     2    30 ar  
     6     3     4 ar  
     7     3    27 ar  
     8     4     5 ar  
     9     4    31 1   
    10     5     6 ar  
    11     5    32 1   
    12     6     7 1   
    13     7     8 1   
    14     7    18 1   
    15     8     9 ar  
    16     8    13 ar  
    17     9    10 ar  
    18    10    11 ar  
    19    11    12 ar  
    20    11    17 ar  
    21    12    13 ar  
    22    12    14 ar  
    23    14    15 ar  
    24    14    33 1   
    25    15    16 ar  
    26    15    34 1   
    27    16    17 ar  
    28    16    35 1   
    29    17    36 1   
    30    18    19 1   
    31    18    37 1   
    32    18    38 1   
    33    19    20 1   
    34    19    39 1   
    35    19    40 1   
    36    20    21 1   
    37    20    24 1   
    38    21    22 1   
    39    21    41 1   
    40    21    42 1   
    41    22    23 1   
    42    22    43 1   
    43    22    44 1   
    44    23    45 1   
    45    23    46 1   
    46    23    47 1   
    47    24    25 1   
    48    24    48 1   
    49    24    49 1   
    50    25    26 1   
    51    25    50 1   
    52    25    51 1   
    53    26    52 1   
    54    26    53 1   
    55    26    54 1   
    56    27    28 ar  
    57    27    55 1   
    58    28    29 ar  
    59    28    56 1   
    60    29    30 ar  
    61    29    57 1   
    62    30    58 1   
@<TRIPOS>SUBSTRUCTURE
     1 UNL         1 TEMP              0 ****  ****    0 ROOT
