@<TRIPOS>MOLECULE
UNL
   45    49     1     0     0
SMALL
bcc


@<TRIPOS>ATOM
      1 C1          -0.8960    16.9960    45.7110 cp         1 UNL      -0.195500
      2 C2          -1.7670    15.9160    45.8200 ca         1 UNL      -0.049000
      3 C3          -2.9890    15.9940    45.1290 ca         1 UNL      -0.165000
      4 C4          -3.3040    17.1310    44.3510 ca         1 UNL      -0.087000
      5 C5          -2.4030    18.2070    44.2550 ca         1 UNL      -0.160000
      6 C6          -1.1960    18.1180    44.9540 ca         1 UNL       0.009800
      7 N1          -0.1820    19.0240    44.9920 na         1 UNL      -0.171000
      8 C7           0.7630    18.4440    45.7670 ca         1 UNL       0.378500
      9 C8           0.3570    17.2190    46.2230 cp         1 UNL       0.356500
     10 N2           1.1460    16.4380    46.9980 nb         1 UNL      -0.594000
     11 C9           2.3850    16.9100    47.3330 ca         1 UNL       0.267300
     12 C10          2.8150    18.1900    46.8570 ca         1 UNL       0.316300
     13 N3           1.9870    18.9410    46.0690 nb         1 UNL      -0.659000
     14 C11          4.0860    18.6640    47.2000 ca         1 UNL      -0.170300
     15 C12          4.9270    17.8880    48.0040 ca         1 UNL      -0.117000
     16 C13          4.5060    16.6370    48.4690 ca         1 UNL      -0.135000
     17 C14          3.2390    16.1470    48.1350 ca         1 UNL      -0.149300
     18 C15         -0.0730    20.2880    44.2640 c3         1 UNL       0.034300
     19 C16          0.4330    20.0350    42.8410 c3         1 UNL       0.134800
     20 N4           0.6350    21.3120    42.1260 n3         1 UNL      -0.720600
     21 C17          1.6680    21.1650    41.0800 c3         1 UNL       0.133300
     22 C18          1.7120    22.4040    40.1630 c3         1 UNL       0.101900
     23 O1           0.9930    23.4790    40.7320 os         1 UNL      -0.416600
     24 C19         -0.3820    23.1470    40.8100 c3         1 UNL       0.101900
     25 C20         -0.6200    21.7950    41.5180 c3         1 UNL       0.133300
     26 H1          -1.5120    15.0460    46.4110 ha         1 UNL       0.153000
     27 H2          -3.6920    15.1740    45.1900 ha         1 UNL       0.138000
     28 H3          -4.2470    17.1730    43.8220 ha         1 UNL       0.136000
     29 H4          -2.6440    19.0730    43.6520 ha         1 UNL       0.141000
     30 H5           4.4220    19.6310    46.8460 ha         1 UNL       0.151000
     31 H6           5.9100    18.2580    48.2690 ha         1 UNL       0.137000
     32 H7           5.1660    16.0440    49.0900 ha         1 UNL       0.138000
     33 H8           2.9250    15.1770    48.4990 ha         1 UNL       0.151000
     34 H9          -1.0630    20.7900    44.2470 h1         1 UNL       0.077200
     35 H10          0.6330    20.9660    44.7920 h1         1 UNL       0.077200
     36 H11          1.3970    19.4830    42.9310 h1         1 UNL       0.046700
     37 H12         -0.2750    19.3710    42.2950 h1         1 UNL       0.046700
     38 H13          2.6600    21.0450    41.5690 h1         1 UNL       0.055950
     39 H14          1.4780    20.2590    40.4590 h1         1 UNL       0.055950
     40 H15          2.7680    22.7190    40.0200 h1         1 UNL       0.051700
     41 H16          1.3130    22.1560    39.1530 h1         1 UNL       0.051700
     42 H17         -0.8330    23.1380    39.7930 h1         1 UNL       0.051700
     43 H18         -0.8950    23.9490    41.3820 h1         1 UNL       0.051700
     44 H19         -1.4020    21.9320    42.2940 h1         1 UNL       0.055950
     45 H20         -1.0020    21.0570    40.7760 h1         1 UNL       0.055950
@<TRIPOS>BOND
     1     1     2 ar  
     2     1     6 ar  
     3     1     9 1   
     4     2     3 ar  
     5     2    26 1   
     6     3     4 ar  
     7     3    27 1   
     8     4     5 ar  
     9     4    28 1   
    10     5     6 ar  
    11     5    29 1   
    12     6     7 1   
    13     7     8 1   
    14     7    18 1   
    15     8     9 ar  
    16     8    13 ar  
    17     9    10 ar  
    18    10    11 ar  
    19    11    12 ar  
    20    11    17 ar  
    21    12    13 ar  
    22    12    14 ar  
    23    14    15 ar  
    24    14    30 1   
    25    15    16 ar  
    26    15    31 1   
    27    16    17 ar  
    28    16    32 1   
    29    17    33 1   
    30    18    19 1   
    31    18    34 1   
    32    18    35 1   
    33    19    20 1   
    34    19    36 1   
    35    19    37 1   
    36    20    21 1   
    37    20    25 1   
    38    21    22 1   
    39    21    38 1   
    40    21    39 1   
    41    22    23 1   
    42    22    40 1   
    43    22    41 1   
    44    23    24 1   
    45    24    25 1   
    46    24    42 1   
    47    24    43 1   
    48    25    44 1   
    49    25    45 1   
@<TRIPOS>SUBSTRUCTURE
     1 UNL         1 TEMP              0 ****  ****    0 ROOT
