@<TRIPOS>MOLECULE
UNL
   55    60     1     0     0
SMALL
bcc


@<TRIPOS>ATOM
      1 C1          -0.9010    16.9770    45.7110 cp         1 UNL      -0.195500
      2 C2          -1.7980    15.9020    45.8140 ca         1 UNL       0.035000
      3 C3          -3.0310    16.0070    45.1080 ca         1 UNL      -0.069000
      4 C4          -3.3160    17.1580    44.3350 ca         1 UNL      -0.073000
      5 C5          -2.3960    18.2150    44.2530 ca         1 UNL      -0.152000
      6 C6          -1.1940    18.1070    44.9560 ca         1 UNL       0.016800
      7 N1          -0.1810    19.0130    44.9980 na         1 UNL      -0.165000
      8 C7           0.7640    18.4340    45.7690 ca         1 UNL       0.371500
      9 C8           0.3610    17.2070    46.2230 cp         1 UNL       0.363500
     10 N2           1.1580    16.4340    47.0000 nb         1 UNL      -0.603000
     11 C9           2.3940    16.9110    47.3350 ca         1 UNL       0.273300
     12 C10          2.8180    18.1920    46.8600 ca         1 UNL       0.314300
     13 N3           1.9860    18.9380    46.0730 nb         1 UNL      -0.660000
     14 C11          4.0870    18.6720    47.2020 ca         1 UNL      -0.170300
     15 C12          4.9320    17.8990    48.0050 ca         1 UNL      -0.117000
     16 C13          4.5170    16.6460    48.4710 ca         1 UNL      -0.134000
     17 C14          3.2510    16.1520    48.1380 ca         1 UNL      -0.151300
     18 C15         -0.0790    20.2910    44.2910 c3         1 UNL      -0.001700
     19 C16          0.4630    20.0580    42.8660 c3         1 UNL       0.147800
     20 N4           0.4700    21.2680    42.0140 n3         1 UNL      -0.736600
     21 C17         -0.8700    21.6220    41.4950 c3         1 UNL       0.147800
     22 C18         -0.8740    23.0420    40.9090 c3         1 UNL       0.144300
     23 N5          -0.4940    24.0700    41.9100 n3         1 UNL      -0.731600
     24 C19          0.3330    23.5490    43.0240 c3         1 UNL       0.144300
     25 C20          1.2480    22.4070    42.5580 c3         1 UNL       0.147800
     26 C21         -1.6770    24.7700    42.4350 c3         1 UNL       0.156100
     27 C22         -3.9600    14.9580    45.1840 ca         1 UNL      -0.111000
     28 C23         -3.6780    13.8210    45.9460 ca         1 UNL      -0.134000
     29 C24         -2.4680    13.7190    46.6380 ca         1 UNL      -0.117000
     30 C25         -1.5290    14.7510    46.5750 ca         1 UNL      -0.118000
     31 H1          -4.2510    17.2360    43.7950 ha         1 UNL       0.137000
     32 H2          -2.6210    19.0870    43.6530 ha         1 UNL       0.141000
     33 H3           4.4190    19.6400    46.8470 ha         1 UNL       0.150000
     34 H4           5.9140    18.2730    48.2680 ha         1 UNL       0.137000
     35 H5           5.1790    16.0570    49.0920 ha         1 UNL       0.138000
     36 H6           2.9410    15.1810    48.5030 ha         1 UNL       0.150000
     37 H7           0.6000    20.9620    44.8560 h1         1 UNL       0.069700
     38 H8          -1.0730    20.7780    44.2760 h1         1 UNL       0.069700
     39 H9           1.5000    19.6630    42.9370 h1         1 UNL       0.064200
     40 H10         -0.1390    19.2640    42.3720 h1         1 UNL       0.064200
     41 H11         -1.6460    21.5650    42.2850 h1         1 UNL       0.049700
     42 H12         -1.1460    20.9030    40.6930 h1         1 UNL       0.049700
     43 H13         -0.1420    23.0810    40.0730 h1         1 UNL       0.051700
     44 H14         -1.8720    23.2470    40.4570 h1         1 UNL       0.051700
     45 H15         -0.3020    23.1760    43.8600 h1         1 UNL       0.051700
     46 H16          0.9650    24.3730    43.4200 h1         1 UNL       0.051700
     47 H17          1.9200    22.0950    43.3870 h1         1 UNL       0.049700
     48 H18          1.9120    22.7920    41.7540 h1         1 UNL       0.049700
     49 H19         -1.3740    25.5340    43.1820 h1         1 UNL       0.031033
     50 H20         -2.3850    24.0540    42.9100 h1         1 UNL       0.031033
     51 H21         -2.1980    25.3040    41.6100 h1         1 UNL       0.031033
     52 H22         -4.9040    15.0170    44.6560 ha         1 UNL       0.131000
     53 H23         -4.4000    13.0160    46.0010 ha         1 UNL       0.133000
     54 H24         -2.2590    12.8350    47.2270 ha         1 UNL       0.135000
     55 H25         -0.6040    14.6410    47.1240 ha         1 UNL       0.160000
@<TRIPOS>BOND
     1     1     2 ar  
     2     1     6 ar  
     3     1     9 1   
     4     2     3 ar  
     5     2    30 ar  
     6     3     4 ar  
     7     3    27 ar  
     8     4     5 ar  
     9     4    31 1   
    10     5     6 ar  
    11     5    32 1   
    12     6     7 1   
    13     7     8 1   
    14     7    18 1   
    15     8     9 ar  
    16     8    13 ar  
    17     9    10 ar  
    18    10    11 ar  
    19    11    12 ar  
    20    11    17 ar  
    21    12    13 ar  
    22    12    14 ar  
    23    14    15 ar  
    24    14    33 1   
    25    15    16 ar  
    26    15    34 1   
    27    16    17 ar  
    28    16    35 1   
    29    17    36 1   
    30    18    19 1   
    31    18    37 1   
    32    18    38 1   
    33    19    20 1   
    34    19    39 1   
    35    19    40 1   
    36    20    21 1   
    37    20    25 1   
    38    21    22 1   
    39    21    41 1   
    40    21    42 1   
    41    22    23 1   
    42    22    43 1   
    43    22    44 1   
    44    23    24 1   
    45    23    26 1   
    46    24    25 1   
    47    24    45 1   
    48    24    46 1   
    49    25    47 1   
    50    25    48 1   
    51    26    49 1   
    52    26    50 1   
    53    26    51 1   
    54    27    28 ar  
    55    27    52 1   
    56    28    29 ar  
    57    28    53 1   
    58    29    30 ar  
    59    29    54 1   
    60    30    55 1   
@<TRIPOS>SUBSTRUCTURE
     1 UNL         1 TEMP              0 ****  ****    0 ROOT
