@<TRIPOS>MOLECULE
UNL
   56    61     1     0     0
SMALL
bcc


@<TRIPOS>ATOM
      1 C1           1.1050    17.2400    46.5620 cp         1 UNL      -0.197500
      2 C2           0.0590    16.3060    46.5080 ca         1 UNL       0.035000
      3 C3          -1.0870    16.6480    45.7330 ca         1 UNL      -0.070000
      4 C4          -1.1430    17.8870    45.0510 ca         1 UNL      -0.074000
      5 C5          -0.0780    18.7980    45.1260 ca         1 UNL      -0.151000
      6 C6           1.0370    18.4570    45.8930 ca         1 UNL       0.017800
      7 N1           2.1650    19.1930    46.0800 na         1 UNL      -0.169000
      8 C7           2.9530    18.4210    46.8560 ca         1 UNL       0.371500
      9 C8           2.3430    17.2370    47.1740 cp         1 UNL       0.362500
     10 N2           2.9580    16.2940    47.9270 nb         1 UNL      -0.604000
     11 C9           4.2220    16.5520    48.3810 ca         1 UNL       0.272300
     12 C10          4.8610    17.7870    48.0510 ca         1 UNL       0.314300
     13 N3           4.2080    18.7090    47.2810 nb         1 UNL      -0.655000
     14 C11          6.1540    18.0430    48.5170 ca         1 UNL      -0.169300
     15 C12          6.8140    17.0940    49.3040 ca         1 UNL      -0.119000
     16 C13          6.1880    15.8840    49.6270 ca         1 UNL      -0.134000
     17 C14          4.8960    15.6110    49.1670 ca         1 UNL      -0.152300
     18 C15          2.5140    20.4810    45.4780 c3         1 UNL       0.035300
     19 C16          3.0920    20.2670    44.0770 c3         1 UNL       0.148800
     20 N4           3.5600    21.5500    43.5070 n3         1 UNL      -0.735600
     21 C17          2.4510    22.3350    42.9110 c3         1 UNL       0.174800
     22 C18          2.9480    23.5870    42.1590 c3         1 UNL      -0.080400
     23 C19          4.3840    23.9400    42.5430 c3         1 UNL      -0.069400
     24 C20          5.3300    22.7710    42.2350 c3         1 UNL      -0.070400
     25 C21          4.7200    21.3890    42.5920 c3         1 UNL       0.191500
     26 C22          4.3740    20.5790    41.3240 c3         1 UNL      -0.128100
     27 C23         -2.1580    15.7450    45.6500 ca         1 UNL      -0.111000
     28 C24         -2.1010    14.5210    46.3220 ca         1 UNL      -0.135000
     29 C25         -0.9770    14.1850    47.0810 ca         1 UNL      -0.118000
     30 C26          0.1010    15.0700    47.1770 ca         1 UNL      -0.118000
     31 H1          -2.0120    18.1460    44.4590 ha         1 UNL       0.137000
     32 H2          -0.1300    19.7390    44.5940 ha         1 UNL       0.143000
     33 H3           6.6480    18.9760    48.2730 ha         1 UNL       0.151000
     34 H4           7.8150    17.2960    49.6660 ha         1 UNL       0.137000
     35 H5           6.7080    15.1550    50.2360 ha         1 UNL       0.137000
     36 H6           4.4210    14.6720    49.4230 ha         1 UNL       0.149000
     37 H7           3.2650    21.0010    46.1130 h1         1 UNL       0.077200
     38 H8           1.6130    21.1260    45.4370 h1         1 UNL       0.077200
     39 H9           2.3300    19.7880    43.4230 h1         1 UNL       0.043200
     40 H10          3.9380    19.5500    44.1760 h1         1 UNL       0.043200
     41 H11          1.7770    22.6750    43.7250 h1         1 UNL       0.027700
     42 H12          1.8440    21.7100    42.2190 h1         1 UNL       0.027700
     43 H13          2.9000    23.4110    41.0620 hc         1 UNL       0.042700
     44 H14          2.2840    24.4500    42.3830 hc         1 UNL       0.042700
     45 H15          4.4240    24.1770    43.6290 hc         1 UNL       0.044200
     46 H16          4.7110    24.8430    41.9840 hc         1 UNL       0.044200
     47 H17          5.6160    22.8130    41.1610 hc         1 UNL       0.042700
     48 H18          6.2660    22.9240    42.8160 hc         1 UNL       0.042700
     49 H19          5.5170    20.8210    43.1250 h1         1 UNL       0.054700
     50 H20          3.6350    21.1120    40.6900 hc         1 UNL       0.038367
     51 H21          5.2930    20.4150    40.7220 hc         1 UNL       0.038367
     52 H22          3.9680    19.5810    41.5890 hc         1 UNL       0.038367
     53 H23         -3.0380    15.9850    45.0650 ha         1 UNL       0.131000
     54 H24         -2.9300    13.8290    46.2530 ha         1 UNL       0.133000
     55 H25         -0.9420    13.2350    47.5980 ha         1 UNL       0.134000
     56 H26          0.9530    14.7800    47.7740 ha         1 UNL       0.159000
@<TRIPOS>BOND
     1     1     2 ar  
     2     1     6 ar  
     3     1     9 1   
     4     2     3 ar  
     5     2    30 ar  
     6     3     4 ar  
     7     3    27 ar  
     8     4     5 ar  
     9     4    31 1   
    10     5     6 ar  
    11     5    32 1   
    12     6     7 1   
    13     7     8 1   
    14     7    18 1   
    15     8     9 ar  
    16     8    13 ar  
    17     9    10 ar  
    18    10    11 ar  
    19    11    12 ar  
    20    11    17 ar  
    21    12    13 ar  
    22    12    14 ar  
    23    14    15 ar  
    24    14    33 1   
    25    15    16 ar  
    26    15    34 1   
    27    16    17 ar  
    28    16    35 1   
    29    17    36 1   
    30    18    19 1   
    31    18    37 1   
    32    18    38 1   
    33    19    20 1   
    34    19    39 1   
    35    19    40 1   
    36    20    21 1   
    37    20    25 1   
    38    21    22 1   
    39    21    41 1   
    40    21    42 1   
    41    22    23 1   
    42    22    43 1   
    43    22    44 1   
    44    23    24 1   
    45    23    45 1   
    46    23    46 1   
    47    24    25 1   
    48    24    47 1   
    49    24    48 1   
    50    25    26 1   
    51    25    49 1   
    52    26    50 1   
    53    26    51 1   
    54    26    52 1   
    55    27    28 ar  
    56    27    53 1   
    57    28    29 ar  
    58    28    54 1   
    59    29    30 ar  
    60    29    55 1   
    61    30    56 1   
@<TRIPOS>SUBSTRUCTURE
     1 UNL         1 TEMP              0 ****  ****    0 ROOT
