@<TRIPOS>MOLECULE
12-[2-(4-methyl-1-piperidyl)ethyl]-12,14,21-triazapentacyclo[11.8.0.0^{2,11}.0^{3,8}.0^{15,20}]henicosa-1(13),2,4,6,8,10,14,16,18,20-decaene
   69    75     1     0     0
SMALL
USER_CHARGES

@<TRIPOS>ATOM
      1 C1          2.1092   12.0184   29.7340 cp        1 <0>       -0.20175
      2 C2          0.7790   11.5225   29.8966 ca        1 <0>        0.03567
      3 C3          0.5783   10.3032   30.5960 ca        1 <0>       -0.07067
      4 C4          1.6751    9.6048   31.1147 ca        1 <0>       -0.07036
      5 C5          2.9807   10.0764   30.9638 ca        1 <0>       -0.15659
      6 C6          3.1682   11.2772   30.2740 ca        1 <0>        0.15492
      7 N1          4.3404   11.9474   29.9931 na        1 <0>       -0.61493
      8 C7          4.0680   13.0864   29.2953 ca        1 <0>        0.50522
      9 C8          2.7014   13.1625   29.1174 cq        1 <0>        0.36557
     10 N2          2.1538   14.2046   28.4498 nb        1 <0>       -0.60174
     11 C9          3.0170   15.1218   27.9938 ca        1 <0>        0.27272
     12 C10         4.4120   15.0116   28.1951 ca        1 <0>        0.31368
     13 N3          4.9617   13.9827   28.8544 nb        1 <0>       -0.65911
     14 C11         5.2448   16.0061   27.6909 ca        1 <0>       -0.17018
     15 C12         4.7350   17.1015   26.9961 ca        1 <0>       -0.11846
     16 C13         3.3674   17.2089   26.7986 ca        1 <0>       -0.13442
     17 C14         2.5216   16.2203   27.2979 ca        1 <0>       -0.15157
     18 C15         5.6657   11.5104   30.3791 c3        1 <0>        0.22207
     19 C16         6.1072   12.0357   31.7462 c3        1 <0>        0.14691
     20 N4          7.4483   11.5799   32.1117 n3        1 <0>       -0.73476
     21 C17         8.0524   12.4930   33.0911 c3        1 <0>        0.17313
     22 C18         9.4770   12.0600   33.4435 c3        1 <0>       -0.07494
     23 C19         9.5091   10.6182   33.9618 c3        1 <0>       -0.06730
     24 C20         8.8034    9.6936   32.9641 c3        1 <0>       -0.07494
     25 C21         7.4012   10.2051   32.6270 c3        1 <0>        0.17313
     26 C22        10.9418   10.1586   34.2169 c3        1 <0>       -0.09052
     27 C23        -0.7285    9.8162   30.7557 ca        1 <0>       -0.11053
     28 C24        -1.8203   10.5142   30.2377 ca        1 <0>       -0.13489
     29 C25        -1.6248   11.7094   29.5518 ca        1 <0>       -0.11784
     30 C26        -0.3362   12.2150   29.3793 ca        1 <0>       -0.12123
     31 H1          1.5260    8.6694   31.6519 ha        1 <0>        0.13699
     32 H2          3.8168    9.5194   31.3745 ha        1 <0>        0.14090
     33 H3          6.3214   15.9378   27.8372 ha        1 <0>        0.15137
     34 H4          5.4055   17.8643   26.6128 ha        1 <0>        0.13636
     35 H5          2.9566   18.0567   26.2590 ha        1 <0>        0.13678
     36 H6          1.4501   16.3200   27.1334 ha        1 <0>        0.15000
     37 H7          6.3679   11.8573   29.6064 h1        1 <0>        0.07572
     38 H8          5.6922   10.4106   30.3587 h1        1 <0>        0.07572
     39 H9          6.1341   13.1297   31.7439 h1        1 <0>        0.04608
     40 H10         5.4230   11.7104   32.5364 h1        1 <0>        0.04608
     41 H11         8.0995   13.5024   32.6716 h1        1 <0>        0.02935
     42 H12         7.4475   12.5402   34.0029 h1        1 <0>        0.02935
     43 H13        10.1157   12.1541   32.5553 hc        1 <0>        0.04849
     44 H14         9.8859   12.7388   34.2016 hc        1 <0>        0.04849
     45 H15         8.9651   10.5799   34.9151 hc        1 <0>        0.04502
     46 H16         9.3936    9.6165   32.0414 hc        1 <0>        0.04849
     47 H17         8.7306    8.6814   33.3796 hc        1 <0>        0.04849
     48 H18         6.9728    9.5431   31.8684 h1        1 <0>        0.02935
     49 H19         6.7656   10.1453   33.5169 h1        1 <0>        0.02935
     50 H20        10.9418    9.1332   34.5841 hc        1 <0>        0.03466
     51 H21        11.4103   10.8025   34.9599 hc        1 <0>        0.03466
     52 H22        11.5158   10.2056   33.2925 hc        1 <0>        0.03466
     53 H23        -0.9106    8.8842   31.2872 ha        1 <0>        0.13124
     54 H24        -2.8251   10.1236   30.3708 ha        1 <0>        0.13309
     55 H25        -2.4772   12.2504   29.1509 ha        1 <0>        0.13415
     56 H26        -0.2203   13.1501   28.8389 ha        1 <0>        0.15890
     57 C17         8.0487   12.4760   33.1089 c3        1 <0>        0.13526
     58 C18         9.4405   11.9740   33.4825 c3        1 <0>        0.12693
     59 O1          9.3688   10.6407   33.9890 os        1 <0>       -0.41438
     60 C19         8.8147    9.7566   33.0140 c3        1 <0>        0.12693
     61 C20         7.4080   10.2051   32.6279 c3        1 <0>        0.13526
     62 H11         8.1351   13.4879   32.7038 h1        1 <0>        0.04170
     63 H12         7.4232   12.5143   34.0071 h1        1 <0>        0.04170
     64 H13        10.1258   12.0038   32.6264 h1        1 <0>        0.05553
     65 H14         9.8662   12.6057   34.2686 h1        1 <0>        0.05553
     66 H15         9.4779    9.7111   32.1417 h1        1 <0>        0.05553
     67 H16         8.7777    8.7551   33.4549 h1        1 <0>        0.05553
     68 H17         7.0166    9.5268   31.8649 h1        1 <0>        0.04170
     69 H18         6.7564   10.1513   33.5065 h1        1 <0>        0.04170
@<TRIPOS>BOND
     1    1    6 ar
     2    1    9 ar
     3    1    2 ar
     4    2   30 ar
     5    2    3 ar
     6    3    4 ar
     7    4    5 ar
     8    5    6 ar
     9    6    7 ar
    10    7    8 ar
    11    8   13 ar
    12    8    9 ar
    13    9   10 ar
    14   10   11 ar
    15   11   17 ar
    16   11   12 ar
    17   12   13 ar
    18   12   14 ar
    19   14   15 ar
    20   15   16 ar
    21   16   17 ar
    22    7   18 1
    23   18   19 1
    24   19   20 1
    25   20   25 1
    26   20   21 1
    27   21   22 1
    28   22   23 1
    29   23   24 1
    30   24   25 1
    31   23   26 1
    32    3   27 ar
    33   27   28 ar
    34   28   29 ar
    35   29   30 ar
    36    4   31 1
    37    5   32 1
    38   14   33 1
    39   15   34 1
    40   16   35 1
    41   17   36 1
    42   18   37 1
    43   18   38 1
    44   19   39 1
    45   19   40 1
    46   21   41 1
    47   21   42 1
    48   22   43 1
    49   22   44 1
    50   23   45 1
    51   24   46 1
    52   24   47 1
    53   25   48 1
    54   25   49 1
    55   26   50 1
    56   26   51 1
    57   26   52 1
    58   27   53 1
    59   28   54 1
    60   29   55 1
    61   30   56 1
    62   20   61 1
    63   20   57 1
    64   57   58 1
    65   58   59 1
    66   59   60 1
    67   60   61 1
    68   57   62 1
    69   57   63 1
    70   58   64 1
    71   58   65 1
    72   60   66 1
    73   60   67 1
    74   61   68 1
    75   61   69 1
@<TRIPOS>SUBSTRUCTURE
     1 <0>         1 GROUP 0 A     ****
