@<TRIPOS>MOLECULE
UNL
   56    61     1     0     0
SMALL
bcc


@<TRIPOS>ATOM
      1 C1           2.2660    18.7950    46.2500 cp         1 UNL      -0.196500
      2 C2           3.2420    18.1960    47.0620 ca         1 UNL       0.035000
      3 C3           4.4340    18.9340    47.3080 ca         1 UNL      -0.070000
      4 C4           4.6040    20.2230    46.7480 ca         1 UNL      -0.074000
      5 C5           3.6060    20.7950    45.9430 ca         1 UNL      -0.151000
      6 C6           2.4440    20.0600    45.7010 ca         1 UNL       0.017800
      7 N1           1.3680    20.4410    44.9630 na         1 UNL      -0.169000
      8 C7           0.5010    19.4120    45.0660 ca         1 UNL       0.372500
      9 C8           1.0120    18.3970    45.8300 cp         1 UNL       0.362500
     10 N2           0.3080    17.2690    46.0850 nb         1 UNL      -0.604000
     11 C9          -0.9460    17.1540    45.5520 ca         1 UNL       0.272300
     12 C10         -1.4830    18.2130    44.7560 ca         1 UNL       0.314300
     13 N3          -0.7410    19.3390    44.5270 nb         1 UNL      -0.654000
     14 C11         -2.7670    18.0910    44.2160 ca         1 UNL      -0.168300
     15 C12         -3.5190    16.9360    44.4550 ca         1 UNL      -0.119000
     16 C13         -2.9930    15.8980    45.2340 ca         1 UNL      -0.134000
     17 C14         -1.7100    16.0060    45.7820 ca         1 UNL      -0.152300
     18 C15          1.1330    21.7270    44.3040 c3         1 UNL       0.035300
     19 C16          0.6080    22.7500    45.3200 c3         1 UNL       0.138800
     20 N4           0.1910    24.0080    44.6590 n3         1 UNL      -0.724600
     21 C17          1.3530    24.7190    44.0600 c3         1 UNL       0.167300
     22 C18          1.0810    26.2170    43.8670 c3         1 UNL      -0.093400
     23 C19          0.8020    26.9170    45.2190 c3         1 UNL      -0.064700
     24 C20          0.2040    25.9450    46.2600 c3         1 UNL      -0.093400
     25 C21         -0.6250    24.8520    45.5730 c3         1 UNL       0.167300
     26 C22          2.0660    27.5870    45.7740 c3         1 UNL      -0.090100
     27 C23          5.4380    18.3760    48.1140 ca         1 UNL      -0.112000
     28 C24          5.2680    17.1050    48.6700 ca         1 UNL      -0.135000
     29 C25          4.0980    16.3810    48.4290 ca         1 UNL      -0.118000
     30 C26          3.0860    16.9190    47.6290 ca         1 UNL      -0.118000
     31 H1           5.5090    20.7880    46.9380 ha         1 UNL       0.136000
     32 H2           3.7450    21.7840    45.5260 ha         1 UNL       0.142000
     33 H3          -3.1840    18.8880    43.6120 ha         1 UNL       0.151000
     34 H4          -4.5120    16.8440    44.0360 ha         1 UNL       0.137000
     35 H5          -3.5820    15.0080    45.4140 ha         1 UNL       0.137000
     36 H6          -1.3130    15.1970    46.3840 ha         1 UNL       0.149000
     37 H7           0.3890    21.6000    43.4870 h1         1 UNL       0.077200
     38 H8           2.0790    22.0810    43.8430 h1         1 UNL       0.077200
     39 H9          -0.2670    22.2800    45.8230 h1         1 UNL       0.042700
     40 H10          1.3780    22.9490    46.0980 h1         1 UNL       0.042700
     41 H11          1.5690    24.2800    43.0630 h1         1 UNL       0.041950
     42 H12          2.2660    24.6050    44.6870 h1         1 UNL       0.041950
     43 H13          0.1950    26.3290    43.2050 hc         1 UNL       0.047450
     44 H14          1.9390    26.6870    43.3390 hc         1 UNL       0.047450
     45 H15          0.0570    27.7230    45.0310 hc         1 UNL       0.047700
     46 H16          1.0070    25.4540    46.8530 hc         1 UNL       0.047450
     47 H17         -0.4400    26.5100    46.9690 hc         1 UNL       0.047450
     48 H18         -1.4340    25.3330    44.9810 h1         1 UNL       0.041950
     49 H19         -1.1410    24.2500    46.3530 h1         1 UNL       0.041950
     50 H20          2.8700    26.8370    45.9310 hc         1 UNL       0.034367
     51 H21          2.4300    28.3620    45.0650 hc         1 UNL       0.034367
     52 H22          1.8420    28.0830    46.7420 hc         1 UNL       0.034367
     53 H23          6.3520    18.9210    48.3140 ha         1 UNL       0.131000
     54 H24          6.0450    16.6800    49.2910 ha         1 UNL       0.133000
     55 H25          3.9740    15.3980    48.8640 ha         1 UNL       0.134000
     56 H26          2.1950    16.3320    47.4620 ha         1 UNL       0.160000
@<TRIPOS>BOND
     1     1     2 ar  
     2     1     6 ar  
     3     1     9 1   
     4     2     3 ar  
     5     2    30 ar  
     6     3     4 ar  
     7     3    27 ar  
     8     4     5 ar  
     9     4    31 1   
    10     5     6 ar  
    11     5    32 1   
    12     6     7 1   
    13     7     8 1   
    14     7    18 1   
    15     8     9 ar  
    16     8    13 ar  
    17     9    10 ar  
    18    10    11 ar  
    19    11    12 ar  
    20    11    17 ar  
    21    12    13 ar  
    22    12    14 ar  
    23    14    15 ar  
    24    14    33 1   
    25    15    16 ar  
    26    15    34 1   
    27    16    17 ar  
    28    16    35 1   
    29    17    36 1   
    30    18    19 1   
    31    18    37 1   
    32    18    38 1   
    33    19    20 1   
    34    19    39 1   
    35    19    40 1   
    36    20    21 1   
    37    20    25 1   
    38    21    22 1   
    39    21    41 1   
    40    21    42 1   
    41    22    23 1   
    42    22    43 1   
    43    22    44 1   
    44    23    24 1   
    45    23    26 1   
    46    23    45 1   
    47    24    25 1   
    48    24    46 1   
    49    24    47 1   
    50    25    48 1   
    51    25    49 1   
    52    26    50 1   
    53    26    51 1   
    54    26    52 1   
    55    27    28 ar  
    56    27    53 1   
    57    28    29 ar  
    58    28    54 1   
    59    29    30 ar  
    60    29    55 1   
    61    30    56 1   
@<TRIPOS>SUBSTRUCTURE
     1 UNL         1 TEMP              0 ****  ****    0 ROOT
