@<TRIPOS>MOLECULE
~{N}-(2-indolo[3,2-b]quinoxalin-6-ylethyl)-~{N}-methyl-butan-1-amine
   68    72     1     0     0
SMALL
USER_CHARGES

@<TRIPOS>ATOM
      1 C1          1.0201   11.6739   29.6940 cp        1 <0>       -0.20168
      2 C2         -0.3714   11.6539   29.4728 ca        1 <0>       -0.04708
      3 C3         -1.1283   10.5910   29.9784 ca        1 <0>       -0.17058
      4 C4         -0.5219    9.5601   30.6932 ca        1 <0>       -0.08362
      5 C5          0.8565    9.5574   30.9256 ca        1 <0>       -0.16839
      6 C6          1.6028   10.6256   30.4151 ca        1 <0>        0.15375
      7 N1          2.9569   10.8780   30.4915 na        1 <0>       -0.62372
      8 C7          3.2477   12.0459   29.8457 ca        1 <0>        0.51867
      9 C8          2.0707   12.5619   29.3419 cq        1 <0>        0.35576
     10 N2          2.0617   13.7238   28.6495 nb        1 <0>       -0.59123
     11 C9          3.2563   14.3130   28.4991 ca        1 <0>        0.26436
     12 C10         4.4456   13.7580   29.0280 ca        1 <0>        0.31861
     13 N3          4.4581   12.6066   29.7146 nb        1 <0>       -0.66464
     14 C11         5.6475   14.4307   28.8289 ca        1 <0>       -0.17169
     15 C12         5.7034   15.6318   28.1243 ca        1 <0>       -0.11589
     16 C13         4.5382   16.1753   27.6067 ca        1 <0>       -0.13715
     17 C14         3.3271   15.5128   27.7980 ca        1 <0>       -0.14924
     18 C15         3.9270   10.0354   31.1584 c3        1 <0>        0.22308
     19 C16         4.5361    8.9676   30.2482 c3        1 <0>        0.14332
     20 N4          5.4955    8.1452   30.9345 n3        1 <0>       -0.74638
     21 C17         4.8329    7.1057   31.7374 c3        1 <0>        0.17404
     22 C18         5.7555    6.5712   32.8098 c3        1 <0>       -0.07500
     23 C19         6.2251    7.6499   33.7886 c3        1 <0>       -0.07799
     24 C20         7.1493    7.0726   34.8494 c3        1 <0>       -0.09359
     25 C21         6.4324    7.5146   29.9916 c3        1 <0>        0.16461
     26 H1         -0.8577   12.4503   28.9166 ha        1 <0>        0.15076
     27 H2         -2.2018   10.5709   29.8108 ha        1 <0>        0.13783
     28 H3         -1.1291    8.7444   31.0776 ha        1 <0>        0.13489
     29 H4          1.3229    8.7518   31.4827 ha        1 <0>        0.14053
     30 H5          6.5722   14.0190   29.2295 ha        1 <0>        0.15151
     31 H6          6.6538   16.1371   27.9824 ha        1 <0>        0.13651
     32 H7          4.5673   17.1101   27.0553 ha        1 <0>        0.13693
     33 H8          2.4217   15.9539   27.3847 ha        1 <0>        0.14978
     34 H9          3.4196    9.5514   32.0062 h1        1 <0>        0.07470
     35 H10         4.7133   10.6759   31.5855 h1        1 <0>        0.07470
     36 H11         3.7569    8.2979   29.8713 h1        1 <0>        0.04363
     37 H12         5.0448    9.4198   29.3908 h1        1 <0>        0.04363
     38 H13         3.9371    7.5635   32.1427 h1        1 <0>        0.02824
     39 H14         4.5568    6.3313   31.0293 h1        1 <0>        0.02824
     40 H15         6.6265    6.0815   32.3570 hc        1 <0>        0.04024
     41 H16         5.2031    5.8014   33.3622 hc        1 <0>        0.04024
     42 H17         5.3591    8.1097   34.2788 hc        1 <0>        0.04674
     43 H18         6.7546    8.4448   33.2515 hc        1 <0>        0.04674
     44 H19         7.4809    7.8498   35.5455 hc        1 <0>        0.03171
     45 H20         6.6297    6.3001   35.4249 hc        1 <0>        0.03171
     46 H21         8.0349    6.6185   34.3936 hc        1 <0>        0.03171
     47 H22         7.1298    6.9098   30.5559 h1        1 <0>        0.03358
     48 H23         6.9565    8.2941   29.4543 h1        1 <0>        0.03358
     49 H24         5.8670    6.8985   29.3050 h1        1 <0>        0.03358
     50 N4          5.4248    8.7246   32.1615 n3        1 <0>       -0.71534
     51 C17         4.8290    7.3832   32.2493 c3        1 <0>        0.15911
     52 C18         4.0018    7.1433   33.5134 c3        1 <0>       -0.11248
     53 C19         4.7985    7.4709   34.7701 c3        1 <0>       -0.07417
     54 C20         5.4015    8.8692   34.6779 c3        1 <0>       -0.10774
     55 C21         6.1851    9.0945   33.3717 c3        1 <0>        0.17950
     56 C22         7.5338    8.3612   33.3924 c3        1 <0>       -0.08738
     57 H13         4.2002    7.1842   31.3614 h1        1 <0>        0.05027
     58 H14         5.6314    6.6244   32.2329 h1        1 <0>        0.05027
     59 H15         3.0926    7.7565   33.4824 hc        1 <0>        0.04344
     60 H16         3.6762    6.0946   33.5474 hc        1 <0>        0.04344
     61 H17         4.1417    7.4114   35.6487 hc        1 <0>        0.04139
     62 H18         5.5930    6.7281   34.9153 hc        1 <0>        0.04139
     63 H19         4.5919    9.6096   34.7637 hc        1 <0>        0.04415
     64 H20         6.0619    9.0324   35.5446 hc        1 <0>        0.04415
     65 H21         6.4233   10.1895   33.2978 h1        1 <0>        0.05483
     66 H22         8.0574    8.5421   32.4583 hc        1 <0>        0.03903
     67 H23         7.3633    7.2954   33.5124 hc        1 <0>        0.03903
     68 H24         8.1319    8.7289   34.2210 hc        1 <0>        0.03903
@<TRIPOS>BOND
     1    1    6 ar
     2    1    9 ar
     3    1    2 ar
     4    2    3 ar
     5    3    4 ar
     6    4    5 ar
     7    5    6 ar
     8    6    7 ar
     9    7    8 ar
    10    8   13 ar
    11    8    9 ar
    12    9   10 ar
    13   10   11 ar
    14   11   17 ar
    15   11   12 ar
    16   12   13 ar
    17   12   14 ar
    18   14   15 ar
    19   15   16 ar
    20   16   17 ar
    21    7   18 1
    22   18   19 1
    23   19   20 1
    24   20   21 1
    25   21   22 1
    26   22   23 1
    27   23   24 1
    28   20   25 1
    29    2   26 1
    30    3   27 1
    31    4   28 1
    32    5   29 1
    33   14   30 1
    34   15   31 1
    35   16   32 1
    36   17   33 1
    37   18   34 1
    38   18   35 1
    39   19   36 1
    40   19   37 1
    41   21   38 1
    42   21   39 1
    43   22   40 1
    44   22   41 1
    45   23   42 1
    46   23   43 1
    47   24   44 1
    48   24   45 1
    49   24   46 1
    50   25   47 1
    51   25   48 1
    52   25   49 1
    53   19   50 1
    54   50   55 1
    55   50   51 1
    56   51   52 1
    57   52   53 1
    58   53   54 1
    59   54   55 1
    60   55   56 1
    61   51   57 1
    62   51   58 1
    63   52   59 1
    64   52   60 1
    65   53   61 1
    66   53   62 1
    67   54   63 1
    68   54   64 1
    69   55   65 1
    70   56   66 1
    71   56   67 1
    72   56   68 1
@<TRIPOS>SUBSTRUCTURE
     1 <0>         1 GROUP 0 A     ****
