@<TRIPOS>MOLECULE
UNL
   50    54     1     0     0
SMALL
bcc


@<TRIPOS>ATOM
      1 C1          -0.8690    16.9680    45.6560 cp         1 UNL      -0.195500
      2 C2          -1.7580    15.9070    45.8030 ca         1 UNL      -0.049000
      3 C3          -3.0170    16.0230    45.1860 ca         1 UNL      -0.166000
      4 C4          -3.3530    17.1830    44.4520 ca         1 UNL      -0.088000
      5 C5          -2.4360    18.2430    44.3230 ca         1 UNL      -0.160000
      6 C6          -1.1870    18.1080    44.9360 ca         1 UNL       0.009800
      7 N1          -0.1630    19.0040    44.9540 na         1 UNL      -0.165000
      8 C7           0.7890    18.4160    45.7130 ca         1 UNL       0.378500
      9 C8           0.3950    17.1780    46.1460 cp         1 UNL       0.356500
     10 N2           1.1730    16.4090    46.9430 nb         1 UNL      -0.594000
     11 C9           2.3950    16.9000    47.3120 ca         1 UNL       0.267300
     12 C10          2.8120    18.1940    46.8640 ca         1 UNL       0.316300
     13 N3           1.9890    18.9390    46.0660 nb         1 UNL      -0.661000
     14 C11          4.0610    18.6900    47.2500 ca         1 UNL      -0.170300
     15 C12          4.8950    17.9220    48.0690 ca         1 UNL      -0.116000
     16 C13          4.4880    16.6570    48.5070 ca         1 UNL      -0.135000
     17 C14          3.2410    16.1450    48.1310 ca         1 UNL      -0.149300
     18 C15         -0.1330    20.3560    44.3940 c3         1 UNL      -0.006700
     19 C16         -0.7830    21.3440    45.3810 c3         1 UNL       0.151800
     20 N4          -0.6800    22.7620    44.9710 n3         1 UNL      -0.743600
     21 C17          0.7140    23.2470    44.8660 c3         1 UNL       0.182300
     22 C18          0.8270    24.7520    45.2140 c3         1 UNL      -0.074400
     23 C19         -0.4960    25.3920    45.6770 c3         1 UNL      -0.067400
     24 C20         -1.5610    25.5480    44.5660 c3         1 UNL      -0.067400
     25 C21         -1.4480    24.5630    43.3870 c3         1 UNL      -0.074400
     26 C22         -1.5120    23.0790    43.7910 c3         1 UNL       0.182300
     27 H1          -1.4950    15.0270    46.3750 ha         1 UNL       0.153000
     28 H2          -3.7350    15.2190    45.2780 ha         1 UNL       0.138000
     29 H3          -4.3280    17.2590    43.9870 ha         1 UNL       0.135000
     30 H4          -2.7010    19.1330    43.7680 ha         1 UNL       0.141000
     31 H5           4.3860    19.6680    46.9180 ha         1 UNL       0.150000
     32 H6           5.8620    18.3090    48.3660 ha         1 UNL       0.137000
     33 H7           5.1410    16.0710    49.1410 ha         1 UNL       0.138000
     34 H8           2.9360    15.1660    48.4770 ha         1 UNL       0.151000
     35 H9          -0.6700    20.3580    43.4240 h1         1 UNL       0.070200
     36 H10          0.9200    20.6410    44.1910 h1         1 UNL       0.070200
     37 H11         -0.3080    21.2230    46.3800 h1         1 UNL       0.061700
     38 H12         -1.8530    21.0730    45.5160 h1         1 UNL       0.061700
     39 H13          1.1160    23.0650    43.8440 h1         1 UNL       0.027450
     40 H14          1.3720    22.6890    45.5710 h1         1 UNL       0.027450
     41 H15          1.5730    24.8750    46.0300 hc         1 UNL       0.039700
     42 H16          1.2250    25.3160    44.3420 hc         1 UNL       0.039700
     43 H17         -0.2740    26.3990    46.0940 hc         1 UNL       0.040450
     44 H18         -0.9160    24.7980    46.5190 hc         1 UNL       0.040450
     45 H19         -1.4860    26.5760    44.1500 hc         1 UNL       0.040450
     46 H20         -2.5720    25.4570    45.0200 hc         1 UNL       0.040450
     47 H21         -0.5120    24.7590    42.8220 hc         1 UNL       0.039700
     48 H22         -2.2800    24.7680    42.6790 hc         1 UNL       0.039700
     49 H23         -1.1980    22.4770    42.9120 h1         1 UNL       0.027450
     50 H24         -2.5720    22.8280    44.0160 h1         1 UNL       0.027450
@<TRIPOS>BOND
     1     1     2 ar  
     2     1     6 ar  
     3     1     9 1   
     4     2     3 ar  
     5     2    27 1   
     6     3     4 ar  
     7     3    28 1   
     8     4     5 ar  
     9     4    29 1   
    10     5     6 ar  
    11     5    30 1   
    12     6     7 1   
    13     7     8 1   
    14     7    18 1   
    15     8     9 ar  
    16     8    13 ar  
    17     9    10 ar  
    18    10    11 ar  
    19    11    12 ar  
    20    11    17 ar  
    21    12    13 ar  
    22    12    14 ar  
    23    14    15 ar  
    24    14    31 1   
    25    15    16 ar  
    26    15    32 1   
    27    16    17 ar  
    28    16    33 1   
    29    17    34 1   
    30    18    19 1   
    31    18    35 1   
    32    18    36 1   
    33    19    20 1   
    34    19    37 1   
    35    19    38 1   
    36    20    21 1   
    37    20    26 1   
    38    21    22 1   
    39    21    39 1   
    40    21    40 1   
    41    22    23 1   
    42    22    41 1   
    43    22    42 1   
    44    23    24 1   
    45    23    43 1   
    46    23    44 1   
    47    24    25 1   
    48    24    45 1   
    49    24    46 1   
    50    25    26 1   
    51    25    47 1   
    52    25    48 1   
    53    26    49 1   
    54    26    50 1   
@<TRIPOS>SUBSTRUCTURE
     1 UNL         1 TEMP              0 ****  ****    0 ROOT
