@<TRIPOS>MOLECULE
UNL
   50    54     1     0     0
SMALL
bcc


@<TRIPOS>ATOM
      1 C1          -0.8690    16.9670    45.6550 cp         1 UNL      -0.196500
      2 C2          -1.7580    15.9070    45.8030 ca         1 UNL      -0.049000
      3 C3          -3.0170    16.0240    45.1870 ca         1 UNL      -0.167000
      4 C4          -3.3540    17.1840    44.4540 ca         1 UNL      -0.088000
      5 C5          -2.4360    18.2440    44.3240 ca         1 UNL      -0.161000
      6 C6          -1.1860    18.1080    44.9350 ca         1 UNL       0.011800
      7 N1          -0.1630    19.0040    44.9540 na         1 UNL      -0.170000
      8 C7           0.7900    18.4160    45.7120 ca         1 UNL       0.379500
      9 C8           0.3960    17.1780    46.1440 cp         1 UNL       0.355500
     10 N2           1.1730    16.4090    46.9420 nb         1 UNL      -0.595000
     11 C9           2.3950    16.9000    47.3120 ca         1 UNL       0.266300
     12 C10          2.8120    18.1940    46.8640 ca         1 UNL       0.316300
     13 N3           1.9890    18.9390    46.0650 nb         1 UNL      -0.659000
     14 C11          4.0600    18.6910    47.2510 ca         1 UNL      -0.170300
     15 C12          4.8950    17.9230    48.0700 ca         1 UNL      -0.117000
     16 C13          4.4870    16.6570    48.5080 ca         1 UNL      -0.136000
     17 C14          3.2410    16.1450    48.1310 ca         1 UNL      -0.149300
     18 C15         -0.1370    20.3560    44.3950 c3         1 UNL       0.033300
     19 C16         -0.8070    21.3410    45.3660 c3         1 UNL       0.133800
     20 N4          -0.6620    22.7480    44.9110 n3         1 UNL      -0.718600
     21 C17         -1.3360    22.9460    43.5930 c3         1 UNL       0.163800
     22 C18         -1.9250    24.3510    43.4000 c3         1 UNL      -0.102400
     23 C19         -2.9560    24.6650    44.4950 c3         1 UNL      -0.077400
     24 C20         -2.5620    24.0850    45.8670 c3         1 UNL      -0.109400
     25 C21         -1.0550    23.7740    45.9300 c3         1 UNL       0.181500
     26 C22         -0.6140    23.4550    47.3700 c3         1 UNL      -0.092100
     27 H1          -1.4950    15.0270    46.3750 ha         1 UNL       0.152000
     28 H2          -3.7360    15.2200    45.2790 ha         1 UNL       0.137000
     29 H3          -4.3290    17.2610    43.9900 ha         1 UNL       0.135000
     30 H4          -2.7010    19.1340    43.7700 ha         1 UNL       0.141000
     31 H5           4.3860    19.6690    46.9190 ha         1 UNL       0.151000
     32 H6           5.8610    18.3100    48.3680 ha         1 UNL       0.137000
     33 H7           5.1400    16.0710    49.1420 ha         1 UNL       0.137000
     34 H8           2.9360    15.1650    48.4770 ha         1 UNL       0.150000
     35 H9           0.9150    20.6690    44.2190 h1         1 UNL       0.076200
     36 H10         -0.6520    20.3520    43.4120 h1         1 UNL       0.076200
     37 H11         -1.8790    21.0790    45.5010 h1         1 UNL       0.045200
     38 H12         -0.2920    21.1870    46.3350 h1         1 UNL       0.045200
     39 H13         -0.5960    22.7660    42.7840 h1         1 UNL       0.043700
     40 H14         -2.1710    22.2210    43.4500 h1         1 UNL       0.043700
     41 H15         -2.4110    24.4190    42.4030 hc         1 UNL       0.044700
     42 H16         -1.1040    25.1010    43.4220 hc         1 UNL       0.044700
     43 H17         -3.9450    24.2540    44.1990 hc         1 UNL       0.041200
     44 H18         -3.0640    25.7690    44.5730 hc         1 UNL       0.041200
     45 H19         -3.1360    23.1510    46.0540 hc         1 UNL       0.045200
     46 H20         -2.8380    24.8140    46.6610 hc         1 UNL       0.045200
     47 H21         -0.5110    24.7120    45.6780 h1         1 UNL       0.056700
     48 H22         -0.7370    24.3570    48.0080 hc         1 UNL       0.041700
     49 H23          0.4590    23.1690    47.3890 hc         1 UNL       0.041700
     50 H24         -1.2330    22.6450    47.8110 hc         1 UNL       0.041700
@<TRIPOS>BOND
     1     1     2 ar  
     2     1     6 ar  
     3     1     9 1   
     4     2     3 ar  
     5     2    27 1   
     6     3     4 ar  
     7     3    28 1   
     8     4     5 ar  
     9     4    29 1   
    10     5     6 ar  
    11     5    30 1   
    12     6     7 1   
    13     7     8 1   
    14     7    18 1   
    15     8     9 ar  
    16     8    13 ar  
    17     9    10 ar  
    18    10    11 ar  
    19    11    12 ar  
    20    11    17 ar  
    21    12    13 ar  
    22    12    14 ar  
    23    14    15 ar  
    24    14    31 1   
    25    15    16 ar  
    26    15    32 1   
    27    16    17 ar  
    28    16    33 1   
    29    17    34 1   
    30    18    19 1   
    31    18    35 1   
    32    18    36 1   
    33    19    20 1   
    34    19    37 1   
    35    19    38 1   
    36    20    21 1   
    37    20    25 1   
    38    21    22 1   
    39    21    39 1   
    40    21    40 1   
    41    22    23 1   
    42    22    41 1   
    43    22    42 1   
    44    23    24 1   
    45    23    43 1   
    46    23    44 1   
    47    24    25 1   
    48    24    45 1   
    49    24    46 1   
    50    25    26 1   
    51    25    47 1   
    52    26    48 1   
    53    26    49 1   
    54    26    50 1   
@<TRIPOS>SUBSTRUCTURE
     1 UNL         1 TEMP              0 ****  ****    0 ROOT
