@<TRIPOS>MOLECULE
UNL
   47    51     1     0     0
SMALL
bcc


@<TRIPOS>ATOM
      1 C1           1.0880    17.2410    46.4730 cp         1 UNL      -0.195500
      2 C2           0.0260    16.3420    46.4670 ca         1 UNL      -0.049000
      3 C3          -1.1270    16.7030    45.7480 ca         1 UNL      -0.166000
      4 C4          -1.1920    17.9400    45.0680 ca         1 UNL      -0.088000
      5 C5          -0.1040    18.8330    45.0950 ca         1 UNL      -0.160000
      6 C6           1.0380    18.4550    45.8070 ca         1 UNL       0.009800
      7 N1           2.1890    19.1600    45.9780 na         1 UNL      -0.165000
      8 C7           2.9500    18.3790    46.7770 ca         1 UNL       0.378500
      9 C8           2.3150    17.2060    47.0880 cp         1 UNL       0.356500
     10 N2           2.8710    16.2740    47.8970 nb         1 UNL      -0.594000
     11 C9           4.1150    16.5280    48.4060 ca         1 UNL       0.267300
     12 C10          4.7830    17.7530    48.0870 ca         1 UNL       0.316300
     13 N3           4.1790    18.6690    47.2700 nb         1 UNL      -0.661000
     14 C11          6.0520    18.0070    48.6150 ca         1 UNL      -0.170300
     15 C12          6.6620    17.0660    49.4510 ca         1 UNL      -0.116000
     16 C13          6.0090    15.8680    49.7640 ca         1 UNL      -0.135000
     17 C14          4.7380    15.5980    49.2440 ca         1 UNL      -0.149300
     18 C15          2.4980    20.5130    45.5160 c3         1 UNL      -0.004700
     19 C16          1.9270    21.5480    46.5050 c3         1 UNL       0.145800
     20 N4           2.2840    22.9500    46.1980 n3         1 UNL      -0.734600
     21 C17          1.9660    23.3590    44.8180 c3         1 UNL       0.172300
     22 C18          1.9670    24.8940    44.7060 c3         1 UNL      -0.095900
     23 C19          2.8900    25.5610    45.7420 c3         1 UNL      -0.077400
     24 C20          4.1030    24.6790    46.0540 c3         1 UNL      -0.095900
     25 C21          3.6730    23.2930    46.5830 c3         1 UNL       0.172300
     26 H1           0.0820    15.4010    46.9990 ha         1 UNL       0.153000
     27 H2          -1.9740    16.0300    45.7200 ha         1 UNL       0.138000
     28 H3          -2.0890    18.2060    44.5230 ha         1 UNL       0.135000
     29 H4          -0.1620    19.7820    44.5800 ha         1 UNL       0.141000
     30 H5           6.5670    18.9310    48.3810 ha         1 UNL       0.150000
     31 H6           7.6450    17.2650    49.8590 ha         1 UNL       0.137000
     32 H7           6.4890    15.1460    50.4120 ha         1 UNL       0.138000
     33 H8           4.2420    14.6690    49.4940 ha         1 UNL       0.151000
     34 H9           3.5980    20.6210    45.4190 h1         1 UNL       0.070200
     35 H10          2.0640    20.6600    44.5050 h1         1 UNL       0.070200
     36 H11          2.2670    21.2950    47.5340 h1         1 UNL       0.062200
     37 H12          0.8190    21.4580    46.5140 h1         1 UNL       0.062200
     38 H13          0.9630    22.9790    44.5200 h1         1 UNL       0.041950
     39 H14          2.7190    22.9410    44.1120 h1         1 UNL       0.041950
     40 H15          0.9340    25.2790    44.8510 hc         1 UNL       0.046450
     41 H16          2.2900    25.1810    43.6820 hc         1 UNL       0.046450
     42 H17          3.2310    26.5470    45.3600 hc         1 UNL       0.039700
     43 H18          2.3240    25.7390    46.6830 hc         1 UNL       0.039700
     44 H19          4.7510    25.1850    46.8020 hc         1 UNL       0.046450
     45 H20          4.7000    24.5510    45.1240 hc         1 UNL       0.046450
     46 H21          3.7370    23.3060    47.6930 h1         1 UNL       0.041950
     47 H22          4.3970    22.5370    46.2160 h1         1 UNL       0.041950
@<TRIPOS>BOND
     1     1     2 ar  
     2     1     6 ar  
     3     1     9 1   
     4     2     3 ar  
     5     2    26 1   
     6     3     4 ar  
     7     3    27 1   
     8     4     5 ar  
     9     4    28 1   
    10     5     6 ar  
    11     5    29 1   
    12     6     7 1   
    13     7     8 1   
    14     7    18 1   
    15     8     9 ar  
    16     8    13 ar  
    17     9    10 ar  
    18    10    11 ar  
    19    11    12 ar  
    20    11    17 ar  
    21    12    13 ar  
    22    12    14 ar  
    23    14    15 ar  
    24    14    30 1   
    25    15    16 ar  
    26    15    31 1   
    27    16    17 ar  
    28    16    32 1   
    29    17    33 1   
    30    18    19 1   
    31    18    34 1   
    32    18    35 1   
    33    19    20 1   
    34    19    36 1   
    35    19    37 1   
    36    20    21 1   
    37    20    25 1   
    38    21    22 1   
    39    21    38 1   
    40    21    39 1   
    41    22    23 1   
    42    22    40 1   
    43    22    41 1   
    44    23    24 1   
    45    23    42 1   
    46    23    43 1   
    47    24    25 1   
    48    24    44 1   
    49    24    45 1   
    50    25    46 1   
    51    25    47 1   
@<TRIPOS>SUBSTRUCTURE
     1 UNL         1 TEMP              0 ****  ****    0 ROOT
