@<TRIPOS>MOLECULE
UNL
   49    53     1     0     0
SMALL
bcc


@<TRIPOS>ATOM
      1 C1          -0.8650    16.9650    45.6480 cp         1 UNL      -0.193500
      2 C2          -1.7550    15.9060    45.7990 ca         1 UNL      -0.051000
      3 C3          -3.0180    16.0260    45.1940 ca         1 UNL      -0.168000
      4 C4          -3.3590    17.1900    44.4680 ca         1 UNL      -0.090000
      5 C5          -2.4420    18.2490    44.3370 ca         1 UNL      -0.163000
      6 C6          -1.1870    18.1100    44.9370 ca         1 UNL       0.012800
      7 N1          -0.1630    19.0070    44.9550 na         1 UNL      -0.158000
      8 C7           0.7950    18.4110    45.7010 ca         1 UNL       0.400500
      9 C8           0.4020    17.1720    46.1310 cp         1 UNL       0.358500
     10 N2           1.1780    16.4040    46.9320 nb         1 UNL      -0.598000
     11 C9           2.3970    16.8960    47.3060 ca         1 UNL       0.266300
     12 C10          2.8130    18.1910    46.8610 ca         1 UNL       0.318300
     13 N3           1.9920    18.9340    46.0590 nb         1 UNL      -0.662000
     14 C11          4.0550    18.6940    47.2580 ca         1 UNL      -0.172300
     15 C12          4.8870    17.9300    48.0830 ca         1 UNL      -0.118000
     16 C13          4.4820    16.6620    48.5170 ca         1 UNL      -0.138000
     17 C14          3.2400    16.1460    48.1310 ca         1 UNL      -0.148300
     18 C15         -0.1480    20.3700    44.4180 c3         1 UNL       0.032300
     19 C16         -0.8020    21.3450    45.4050 c3         1 UNL       0.132800
     20 N4          -0.0440    21.4050    46.6760 n3         1 UNL      -0.712600
     21 C17          1.1920    22.2160    46.5360 c3         1 UNL       0.161300
     22 C18          1.7050    22.6820    47.9020 c3         1 UNL       0.138800
     23 N5           0.7340    23.5870    48.5580 n3         1 UNL      -0.737600
     24 C19         -0.6790    23.2950    48.2090 c3         1 UNL       0.138800
     25 C20         -0.8930    21.8220    47.8230 c3         1 UNL       0.161300
     26 C21          0.9370    23.5910    50.0150 c3         1 UNL       0.160100
     27 H1          -1.4880    15.0230    46.3660 ha         1 UNL       0.152000
     28 H2          -3.7370    15.2230    45.2890 ha         1 UNL       0.136000
     29 H3          -4.3380    17.2700    44.0130 ha         1 UNL       0.133000
     30 H4          -2.7110    19.1420    43.7890 ha         1 UNL       0.139000
     31 H5           4.3770    19.6750    46.9300 ha         1 UNL       0.148000
     32 H6           5.8480    18.3220    48.3890 ha         1 UNL       0.135000
     33 H7           5.1320    16.0800    49.1570 ha         1 UNL       0.136000
     34 H8           2.9360    15.1650    48.4760 ha         1 UNL       0.149000
     35 H9          -0.7010    20.3980    43.4550 h1         1 UNL       0.070200
     36 H10          0.8940    20.6800    44.1930 h1         1 UNL       0.070200
     37 H11         -1.8390    20.9780    45.5730 h1         1 UNL       0.046700
     38 H12         -0.8910    22.3520    44.9420 h1         1 UNL       0.046700
     39 H13          1.9850    21.6060    46.0560 h1         1 UNL       0.056450
     40 H14          1.0220    23.1140    45.9010 h1         1 UNL       0.056450
     41 H15          2.6650    23.2250    47.7610 h1         1 UNL       0.035450
     42 H16          1.9090    21.7810    48.5250 h1         1 UNL       0.035450
     43 H17         -1.3730    23.5630    49.0370 h1         1 UNL       0.035450
     44 H18         -0.9670    23.9320    47.3450 h1         1 UNL       0.035450
     45 H19         -0.6330    21.1870    48.6970 h1         1 UNL       0.056450
     46 H20         -1.9750    21.6520    47.6380 h1         1 UNL       0.056450
     47 H21          0.6540    22.6120    50.4600 h1         1 UNL       0.031700
     48 H22          2.0010    23.8070    50.2550 h1         1 UNL       0.031700
     49 H23          0.3260    24.3930    50.4810 h1         1 UNL       0.031700
@<TRIPOS>BOND
     1     1     2 ar  
     2     1     6 ar  
     3     1     9 1   
     4     2     3 ar  
     5     2    27 1   
     6     3     4 ar  
     7     3    28 1   
     8     4     5 ar  
     9     4    29 1   
    10     5     6 ar  
    11     5    30 1   
    12     6     7 1   
    13     7     8 1   
    14     7    18 1   
    15     8     9 ar  
    16     8    13 ar  
    17     9    10 ar  
    18    10    11 ar  
    19    11    12 ar  
    20    11    17 ar  
    21    12    13 ar  
    22    12    14 ar  
    23    14    15 ar  
    24    14    31 1   
    25    15    16 ar  
    26    15    32 1   
    27    16    17 ar  
    28    16    33 1   
    29    17    34 1   
    30    18    19 1   
    31    18    35 1   
    32    18    36 1   
    33    19    20 1   
    34    19    37 1   
    35    19    38 1   
    36    20    21 1   
    37    20    25 1   
    38    21    22 1   
    39    21    39 1   
    40    21    40 1   
    41    22    23 1   
    42    22    41 1   
    43    22    42 1   
    44    23    24 1   
    45    23    26 1   
    46    24    25 1   
    47    24    43 1   
    48    24    44 1   
    49    25    45 1   
    50    25    46 1   
    51    26    47 1   
    52    26    48 1   
    53    26    49 1   
@<TRIPOS>SUBSTRUCTURE
     1 UNL         1 TEMP              0 ****  ****    0 ROOT
