@<TRIPOS>MOLECULE
UNL
   46    49     1     0     0
SMALL
bcc


@<TRIPOS>ATOM
      1 C1          -0.8990    16.9990    45.7150 cp         1 UNL      -0.197500
      2 C2          -1.7680    15.9170    45.8210 ca         1 UNL      -0.050000
      3 C3          -2.9880    15.9910    45.1250 ca         1 UNL      -0.166000
      4 C4          -3.3010    17.1270    44.3430 ca         1 UNL      -0.088000
      5 C5          -2.4010    18.2050    44.2490 ca         1 UNL      -0.159000
      6 C6          -1.1970    18.1190    44.9560 ca         1 UNL       0.009800
      7 N1          -0.1840    19.0260    44.9950 na         1 UNL      -0.170000
      8 C7           0.7590    18.4470    45.7720 ca         1 UNL       0.378500
      9 C8           0.3530    17.2220    46.2300 cp         1 UNL       0.356500
     10 N2           1.1420    16.4400    47.0030 nb         1 UNL      -0.595000
     11 C9           2.3830    16.9110    47.3350 ca         1 UNL       0.267300
     12 C10          2.8140    18.1900    46.8570 ca         1 UNL       0.316300
     13 N3           1.9860    18.9420    46.0710 nb         1 UNL      -0.661000
     14 C11          4.0870    18.6610    47.1950 ca         1 UNL      -0.171300
     15 C12          4.9290    17.8850    47.9970 ca         1 UNL      -0.117000
     16 C13          4.5070    16.6350    48.4650 ca         1 UNL      -0.136000
     17 C14          3.2380    16.1470    48.1350 ca         1 UNL      -0.149300
     18 C15         -0.0640    20.2870    44.2630 c3         1 UNL       0.032300
     19 C16          0.5200    20.0310    42.8680 c3         1 UNL       0.142800
     20 N4           0.5150    21.2530    42.0330 n3         1 UNL      -0.742600
     21 C17          1.3460    22.3690    42.5540 c3         1 UNL       0.171800
     22 C18          2.7870    21.9740    42.9130 c3         1 UNL      -0.112600
     23 C19          0.7960    20.9600    40.6090 c3         1 UNL       0.171800
     24 C20         -0.1700    21.7360    39.7220 c3         1 UNL      -0.112600
     25 H1          -1.5140    15.0470    46.4130 ha         1 UNL       0.152000
     26 H2          -3.6890    15.1700    45.1830 ha         1 UNL       0.137000
     27 H3          -4.2410    17.1660    43.8090 ha         1 UNL       0.135000
     28 H4          -2.6410    19.0670    43.6420 ha         1 UNL       0.145000
     29 H5           4.4240    19.6270    46.8380 ha         1 UNL       0.150000
     30 H6           5.9130    18.2530    48.2580 ha         1 UNL       0.137000
     31 H7           5.1670    16.0420    49.0850 ha         1 UNL       0.137000
     32 H8           2.9230    15.1780    48.5020 ha         1 UNL       0.151000
     33 H9           0.5880    20.9760    44.8380 h1         1 UNL       0.076200
     34 H10         -1.0610    20.7680    44.1730 h1         1 UNL       0.076200
     35 H11         -0.1240    19.2590    42.3900 h1         1 UNL       0.043700
     36 H12          1.5410    19.5990    42.9450 h1         1 UNL       0.043700
     37 H13          0.8570    22.8100    43.4480 h1         1 UNL       0.039950
     38 H14          1.3840    23.1920    41.8060 h1         1 UNL       0.039950
     39 H15          2.8100    21.3570    43.8350 hc         1 UNL       0.039533
     40 H16          3.3790    22.8930    43.1100 hc         1 UNL       0.039533
     41 H17          3.2740    21.4170    42.0870 hc         1 UNL       0.039533
     42 H18          1.8380    21.2240    40.3260 h1         1 UNL       0.039950
     43 H19          0.6690    19.8790    40.3730 h1         1 UNL       0.039950
     44 H20          0.0230    21.4940    38.6550 hc         1 UNL       0.039533
     45 H21         -0.0380    22.8290    39.8670 hc         1 UNL       0.039533
     46 H22         -1.2170    21.4600    39.9680 hc         1 UNL       0.039533
@<TRIPOS>BOND
     1     1     2 ar  
     2     1     6 ar  
     3     1     9 1   
     4     2     3 ar  
     5     2    25 1   
     6     3     4 ar  
     7     3    26 1   
     8     4     5 ar  
     9     4    27 1   
    10     5     6 ar  
    11     5    28 1   
    12     6     7 1   
    13     7     8 1   
    14     7    18 1   
    15     8     9 ar  
    16     8    13 ar  
    17     9    10 ar  
    18    10    11 ar  
    19    11    12 ar  
    20    11    17 ar  
    21    12    13 ar  
    22    12    14 ar  
    23    14    15 ar  
    24    14    29 1   
    25    15    16 ar  
    26    15    30 1   
    27    16    17 ar  
    28    16    31 1   
    29    17    32 1   
    30    18    19 1   
    31    18    33 1   
    32    18    34 1   
    33    19    20 1   
    34    19    35 1   
    35    19    36 1   
    36    20    21 1   
    37    20    23 1   
    38    21    22 1   
    39    21    37 1   
    40    21    38 1   
    41    22    39 1   
    42    22    40 1   
    43    22    41 1   
    44    23    24 1   
    45    23    42 1   
    46    23    43 1   
    47    24    44 1   
    48    24    45 1   
    49    24    46 1   
@<TRIPOS>SUBSTRUCTURE
     1 UNL         1 TEMP              0 ****  ****    0 ROOT
