@<TRIPOS>MOLECULE
6-[2-(4-methylpiperazin-1-yl)ethyl]indolo[3,2-b]quinoxaline
   65    70     1     0     0
SMALL
USER_CHARGES

@<TRIPOS>ATOM
      1 C1          1.4970   11.7319   29.7189 cp        1 <0>       -0.20135
      2 C2          0.0955   11.7972   29.5884 ca        1 <0>       -0.04733
      3 C3         -0.6830   10.7237   30.0358 ca        1 <0>       -0.17020
      4 C4         -0.0881    9.5996   30.6048 ca        1 <0>       -0.08385
      5 C5          1.2998    9.5113   30.7451 ca        1 <0>       -0.16807
      6 C6          2.0677   10.5909   30.2940 ca        1 <0>        0.15371
      7 N1          3.4351   10.7731   30.3059 na        1 <0>       -0.62374
      8 C7          3.7458   11.9859   29.7601 ca        1 <0>        0.51835
      9 C8          2.5686   12.6028   29.3875 cq        1 <0>        0.35574
     10 N2          2.5772   13.8279   28.8145 nb        1 <0>       -0.59064
     11 C9          3.7892   14.3749   28.6447 ca        1 <0>        0.26412
     12 C10         4.9783   13.7162   29.0376 ca        1 <0>        0.31893
     13 N3          4.9732   12.5019   29.6057 nb        1 <0>       -0.66431
     14 C11         6.1989   14.3508   28.8272 ca        1 <0>       -0.17191
     15 C12         6.2735   15.6132   28.2416 ca        1 <0>       -0.11578
     16 C13         5.1085   16.2582   27.8572 ca        1 <0>       -0.13738
     17 C14         3.8788   15.6351   28.0615 ca        1 <0>       -0.14932
     18 C15         4.3993    9.8245   30.8221 c3        1 <0>        0.22322
     19 C16         4.7153   10.0215   32.3057 c3        1 <0>        0.14206
     20 N4          5.6904    9.0518   32.8008 n3        1 <0>       -0.72661
     21 C17         5.0603    7.7441   33.0198 c3        1 <0>        0.16545
     22 C18         6.0812    6.7272   33.5419 c3        1 <0>        0.16874
     23 N5          6.7096    7.2062   34.7791 n3        1 <0>       -0.73565
     24 C19         7.3406    8.5135   34.5599 c3        1 <0>        0.16874
     25 C20         6.3207    9.5309   34.0370 c3        1 <0>        0.17565
     26 C21         7.6836    6.2364   35.2759 c3        1 <0>        0.15859
     27 H1         -0.3821   12.6668   29.1460 ha        1 <0>        0.15053
     28 H2         -1.7643   10.7692   29.9377 ha        1 <0>        0.13787
     29 H3         -0.7120    8.7774   30.9463 ha        1 <0>        0.13503
     30 H4          1.7572    8.6333   31.1887 ha        1 <0>        0.14087
     31 H5          7.1238   13.8594   29.1241 ha        1 <0>        0.15114
     32 H6          7.2383   16.0869   28.0880 ha        1 <0>        0.13667
     33 H7          5.1522   17.2417   27.3994 ha        1 <0>        0.13693
     34 H8          2.9739   16.1560   27.7536 ha        1 <0>        0.14979
     35 H9          5.3212    9.9331   30.2313 h1        1 <0>        0.07478
     36 H10         4.0242    8.8068   30.6369 h1        1 <0>        0.07478
     37 H11         5.1416   11.0148   32.4765 h1        1 <0>        0.04477
     38 H12         3.8143    9.9240   32.9199 h1        1 <0>        0.04477
     39 H13         4.2289    7.8272   33.7288 h1        1 <0>        0.03714
     40 H14         4.6551    7.3688   32.0752 h1        1 <0>        0.03714
     41 H15         5.5588    5.7820   33.7336 h1        1 <0>        0.03744
     42 H16         6.8365    6.5318   32.7685 h1        1 <0>        0.03744
     43 H17         7.7499    8.8904   35.5051 h1        1 <0>        0.03744
     44 H18         8.1765    8.4314   33.8518 h1        1 <0>        0.03744
     45 H19         5.5663    9.7240   34.8080 h1        1 <0>        0.03714
     46 H20         6.8442   10.4717   33.8418 h1        1 <0>        0.03714
     47 H21         8.1279    6.6204   36.1882 h1        1 <0>        0.03221
     48 H22         8.4512    6.0888   34.5231 h1        1 <0>        0.03221
     49 H23         7.1774    5.2978   35.4764 h1        1 <0>        0.03221
     50 C18         4.1636    7.5497   34.1403 c3        1 <0>       -0.11206
     51 C19         4.8419    7.9739   35.4369 c3        1 <0>       -0.07375
     52 C20         5.4369    9.3722   35.3026 c3        1 <0>       -0.10732
     53 C22         7.6801    8.8127   34.2480 c3        1 <0>       -0.08696
     54 H13         4.5523    7.4486   32.0164 h1        1 <0>        0.05069
     55 H14         5.9057    6.9717   33.0470 h1        1 <0>        0.05069
     56 H15         3.2547    8.1448   33.9873 hc        1 <0>        0.04386
     57 H16         3.8467    6.5006   34.2172 hc        1 <0>        0.04386
     58 H17         4.1101    7.9632   36.2562 hc        1 <0>        0.04181
     59 H18         5.6276    7.2552   35.7022 hc        1 <0>        0.04181
     60 H19         4.6156   10.1037   35.2657 hc        1 <0>        0.04457
     61 H20         6.0159    9.6040   36.2110 hc        1 <0>        0.04457
     62 H21         6.5644   10.6126   33.9308 h1        1 <0>        0.05525
     63 H22         8.2830    8.9385   33.3534 hc        1 <0>        0.03945
     64 H23         7.5101    7.7549   34.4253 hc        1 <0>        0.03945
     65 H24         8.1984    9.2449   35.0989 hc        1 <0>        0.03945
@<TRIPOS>BOND
     1    1    6 ar
     2    1    9 ar
     3    1    2 ar
     4    2    3 ar
     5    3    4 ar
     6    4    5 ar
     7    5    6 ar
     8    6    7 ar
     9    7    8 ar
    10    8   13 ar
    11    8    9 ar
    12    9   10 ar
    13   10   11 ar
    14   11   17 ar
    15   11   12 ar
    16   12   13 ar
    17   12   14 ar
    18   14   15 ar
    19   15   16 ar
    20   16   17 ar
    21    7   18 1
    22   18   19 1
    23   19   20 1
    24   20   25 1
    25   20   21 1
    26   21   22 1
    27   22   23 1
    28   23   24 1
    29   24   25 1
    30   23   26 1
    31    2   27 1
    32    3   28 1
    33    4   29 1
    34    5   30 1
    35   14   31 1
    36   15   32 1
    37   16   33 1
    38   17   34 1
    39   18   35 1
    40   18   36 1
    41   19   37 1
    42   19   38 1
    43   21   39 1
    44   21   40 1
    45   22   41 1
    46   22   42 1
    47   24   43 1
    48   24   44 1
    49   25   45 1
    50   25   46 1
    51   26   47 1
    52   26   48 1
    53   26   49 1
    54   21   50 1
    55   50   51 1
    56   51   52 1
    57   25   52 1
    58   25   53 1
    59   21   54 1
    60   21   55 1
    61   50   56 1
    62   50   57 1
    63   51   58 1
    64   51   59 1
    65   52   60 1
    66   52   61 1
    67   25   62 1
    68   53   63 1
    69   53   64 1
    70   53   65 1
@<TRIPOS>SUBSTRUCTURE
     1 <0>         1 GROUP 0 A     ****
