@<TRIPOS>MOLECULE
UNL
   46    50     1     0     0
SMALL
bcc


@<TRIPOS>ATOM
      1 C1           0.5820    17.4600    46.1930 cp         1 UNL      -0.197500
      2 C2          -0.6910    17.3240    45.6170 ca         1 UNL       0.035000
      3 C3          -1.4010    16.1160    45.8730 ca         1 UNL      -0.070000
      4 C4          -0.8230    15.1050    46.6770 ca         1 UNL      -0.074000
      5 C5           0.4530    15.2720    47.2360 ca         1 UNL      -0.151000
      6 C6           1.1390    16.4630    46.9850 ca         1 UNL       0.018800
      7 N1           2.3790    16.8060    47.4230 na         1 UNL      -0.169000
      8 C7           2.6080    18.0220    46.8840 ca         1 UNL       0.371500
      9 C8           1.5420    18.4520    46.1400 cp         1 UNL       0.362500
     10 N2           1.5570    19.6380    45.4860 nb         1 UNL      -0.604000
     11 C9           2.6740    20.4190    45.5880 ca         1 UNL       0.272300
     12 C10          3.7900    19.9710    46.3620 ca         1 UNL       0.314300
     13 N3           3.7370    18.7640    47.0010 nb         1 UNL      -0.656000
     14 C11          4.9320    20.7730    46.4580 ca         1 UNL      -0.169300
     15 C12          4.9780    22.0060    45.7990 ca         1 UNL      -0.119000
     16 C13          3.8850    22.4440    45.0410 ca         1 UNL      -0.134000
     17 C14          2.7360    21.6530    44.9340 ca         1 UNL      -0.152300
     18 C15          3.3160    16.0000    48.2080 c3         1 UNL       0.037300
     19 C16          4.0850    15.0440    47.2910 c3         1 UNL       0.142800
     20 N4           5.1040    14.2930    48.0560 n3         1 UNL      -0.745600
     21 C17          4.5120    13.1090    48.7030 c3         1 UNL       0.160600
     22 C18          6.1960    13.8670    47.1660 c3         1 UNL       0.160600
     23 C19         -2.6770    15.9360    45.3180 ca         1 UNL      -0.111000
     24 C20         -3.2460    16.9330    44.5220 ca         1 UNL      -0.135000
     25 C21         -2.5490    18.1170    44.2700 ca         1 UNL      -0.118000
     26 C22         -1.2770    18.3170    44.8130 ca         1 UNL      -0.118000
     27 H1          -1.3610    14.1840    46.8690 ha         1 UNL       0.137000
     28 H2           0.8880    14.4890    47.8430 ha         1 UNL       0.142000
     29 H3           5.7830    20.4430    47.0410 ha         1 UNL       0.151000
     30 H4           5.8620    22.6240    45.8750 ha         1 UNL       0.137000
     31 H5           3.9300    23.3990    44.5340 ha         1 UNL       0.137000
     32 H6           1.8970    22.0020    44.3440 ha         1 UNL       0.150000
     33 H7           2.7590    15.4400    48.9860 h1         1 UNL       0.076700
     34 H8           4.0360    16.6660    48.7330 h1         1 UNL       0.076700
     35 H9           4.5680    15.6680    46.5040 h1         1 UNL       0.044700
     36 H10          3.3770    14.3570    46.7730 h1         1 UNL       0.044700
     37 H11          3.7110    13.4080    49.4090 h1         1 UNL       0.032367
     38 H12          4.0890    12.4040    47.9530 h1         1 UNL       0.032367
     39 H13          5.2830    12.5760    49.3010 h1         1 UNL       0.032367
     40 H14          6.9580    13.2910    47.7360 h1         1 UNL       0.032367
     41 H15          5.8130    13.2370    46.3310 h1         1 UNL       0.032367
     42 H16          6.7130    14.7550    46.7430 h1         1 UNL       0.032367
     43 H17         -3.2340    15.0240    45.5000 ha         1 UNL       0.131000
     44 H18         -4.2310    16.7870    44.0970 ha         1 UNL       0.133000
     45 H19         -2.9980    18.8850    43.6520 ha         1 UNL       0.134000
     46 H20         -0.7670    19.2450    44.6010 ha         1 UNL       0.159000
@<TRIPOS>BOND
     1     1     2 ar  
     2     1     6 ar  
     3     1     9 1   
     4     2     3 ar  
     5     2    26 ar  
     6     3     4 ar  
     7     3    23 ar  
     8     4     5 ar  
     9     4    27 1   
    10     5     6 ar  
    11     5    28 1   
    12     6     7 1   
    13     7     8 1   
    14     7    18 1   
    15     8     9 ar  
    16     8    13 ar  
    17     9    10 ar  
    18    10    11 ar  
    19    11    12 ar  
    20    11    17 ar  
    21    12    13 ar  
    22    12    14 ar  
    23    14    15 ar  
    24    14    29 1   
    25    15    16 ar  
    26    15    30 1   
    27    16    17 ar  
    28    16    31 1   
    29    17    32 1   
    30    18    19 1   
    31    18    33 1   
    32    18    34 1   
    33    19    20 1   
    34    19    35 1   
    35    19    36 1   
    36    20    21 1   
    37    20    22 1   
    38    21    37 1   
    39    21    38 1   
    40    21    39 1   
    41    22    40 1   
    42    22    41 1   
    43    22    42 1   
    44    23    24 ar  
    45    23    43 1   
    46    24    25 ar  
    47    24    44 1   
    48    25    26 ar  
    49    25    45 1   
    50    26    46 1   
@<TRIPOS>SUBSTRUCTURE
     1 UNL         1 TEMP              0 ****  ****    0 ROOT
